
**** 12/03/22 23:54:18 ******* PSpice 17.4.0 (Nov 2018) ******* ID# 0 ********

 ** Profile: "root-root_tran8"  [ D:\cad\cadence\eed3009-pspicefiles\root\root_tran8.sim ] 


 ****     CIRCUIT DESCRIPTION


******************************************************************************




** Creating circuit file "root_tran8.cir" 
** WARNING: THIS AUTOMATICALLY GENERATED FILE MAY BE OVERWRITTEN BY SUBSEQUENT SIMULATIONS

*Libraries: 
* Profile Libraries :
* Local Libraries :
.INC "C:/Users/Abdurrahman/Desktop/cd4007/cd4007.lib" 
* From [PSPICE NETLIST] section of D:\cad\cadence\cdssetup\OrCAD_PSpice\17.4.0\PSpice.ini file:

**** INCLUDING cd4007.lib ****
.model nnMOS NMOS (LEVEL=2 VTo=1.4 Kp=.6m LAMBDA=0.005)
.model ppMOS PMOS (LEVEL=2 VTo=-1.0 KP=.6m LAMBDA=0.01)

**** RESUMING root_tran8.cir ****
.lib "nom.lib" 

*Analysis directives: 
.TRAN  0 15ms 0 1us 
.OPTIONS ADVCONV
.OPTIONS GMIN= 1.0E-9
.PROBE64 V(alias(*)) I(alias(*)) W(alias(*)) D(alias(*)) NOISE(alias(*)) 
.INC "..\root.net" 



**** INCLUDING root.net ****
* source EED3009
C_C_eq         N293890 VO-  1.82nF  TC=0,0 
R_R6         N29421 N29217  54.66k TC=0,0 
R_R7         N29853 VDD  89k TC=0,0 
M_M4         VO+ SOUND VDD VDD ppMOS           
M_M3         VO+ SOUND 0 0 nnMOS           
R_R5         N29217 VDD  1k TC=0,0 
R_R8         N29991 N29853  3.6k TC=0,0 
C_C4         0 N29421  330pF IC=1.65V TC=0,0 
X_U3         0 N29991 N29999 VDD N30031 N29991 N29853 VDD 555C
M_M6         VO- /SOUND VDD VDD ppMOS           
X_U1A         N29999 TRANSMIT $G_DPWR $G_DGND 74HC14 PARAMS:
+ IO_LEVEL=0 MNTYMXDLY=0
M_M1         /SOUND SOUND 0 0 nnMOS           
X_U2         0 N29421 SOUND TRANSMIT N29551 N29421 N29217 VDD 555C
M_M2         /SOUND SOUND VDD VDD ppMOS           
C_C7         0 N30031  10n  TC=0,0 
C_C5         0 N29551  10n  TC=0,0 
M_M5         VO- /SOUND 0 0 nnMOS           
R_R_esr         VO+ N293890  10 TC=0,0 
C_C6         0 N29991  100nF IC=1.65V TC=0,0 
X_CD4026_1_U3         CD4026_1_N004852 C_CLK N32613 M_UN0001 $G_DPWR $G_DGND
+  DFF
X_CD4026_1_U2         N32655 N32667 CD4026_1_N004852  $G_DPWR $G_DGND AND2
X_CD4026_1_U1A         C_CLK N32745 $D_HI N32655 N32659 N32663 N32667
+  $G_CD4000_VDD $G_CD4000_VSS CD4518B PARAMS:
+ IO_LEVEL=0 MNTYMXDLY=0
X_CD4026_2_U3         CD4026_2_N004852 N32613 N84729 M_UN0002 $G_DPWR $G_DGND
+  DFF
X_CD4026_2_U2         N32671 N32683 CD4026_2_N004852  $G_DPWR $G_DGND AND2
X_CD4026_2_U1A         N32613 N32745 $D_HI N32671 N32675 N32679 N32683
+  $G_CD4000_VDD $G_CD4000_VSS CD4518B PARAMS:
+ IO_LEVEL=0 MNTYMXDLY=0
R_R17         N74666 N74582  3.3k TC=0,0 
C_C8         0 N74666  1nF IC=1.65V TC=0,0 
C_C9         0 N74696  10n  TC=0,0 
X_U7         ECHO_D TRANSMIT N32745 $G_DPWR $G_DGND OR2
R_R16         VDD N74582  3890 TC=0,0 
X_U6         0 N74666 C_CLK VDD N74696 N74666 N74582 VDD 555C
C_C11         0 VDD  0.1uF  TC=0,0 
C_C10         0 N86762  0.33pF  TC=0,0 
X_U8         N86762 VDD 0 LM7805C
V_V1         N86762 0 9V
R_R12         N97606 N97476  1k TC=0,0 
X_U9A         N98046 VLP VLP VDD 0 awblm358 PARAMS: AVOL=1E+5 VOS=2E-3 GBW=1E+6
+  IBOS=5E-9 IB=45E-9 CMRR=3.16228E+3 PSRR=1E+5 SR=0.5E+6 ISOURCE=40E-3 VPDIF=1
R_R10         N97606 VDD  10k TC=0,0 
C_C1         ECHO_A N97606  1uF IC=-2.50V TC=0,0 
R_R19         VPC VDD  1k TC=0,0 
R_R25         0 N98078  30k TC=0,0 
X_U10A         N97556 REF_2V5 VDD 0 VPC LM393
R_R31         N97588 ECHO_D  40k TC=0,0 
R_R20         VPA N97556  10k TC=0,0 
R_R32         REF_2V5 VDD  10k TC=0,0 
R_R22         VPC N98046  33k TC=0,0 
R_R29         ECHO_D VDD  1k TC=0,0 
R_R26         N98078 VDD  20k TC=0,0 
C_C2         0 N98046  1n  TC=0,0 
R_R13         0 N97606  10k TC=0,0 
R_R30         VLP N97588  10k TC=0,0 
X_U10B         N97588 N98078 VDD 0 ECHO_D LM393
R_R21         N97556 VPC  100k TC=0,0 
R_R9         N97476 VPA  22k TC=0,0 
X_U5A         REF_2V5 N97476 VPA VDD 0 awblm358 PARAMS: AVOL=1E+5 VOS=2E-3
+  GBW=1E+6 IBOS=5E-9 IB=45E-9 CMRR=3.16228E+3 PSRR=1E+5 SR=0.5E+6 ISOURCE=40E-3
+  VPDIF=1
C_C13         0 REF_2V5  100uF  TC=0,0 
R_R33         0 REF_2V5  10k TC=0,0 
C_C12         REF_2V5 VDD  100uF  TC=0,0 
X_D2         N109008 0 LED PARAMS: IS=1.7603e-27 RS=2  BV=5 IBV=10e-6         
R_R18         N109008 0  10k TC=0,0 
X_delay_U9         delay_N00920 delay_N00936 delay_N00924 M_UN0003 $G_DPWR
+  $G_DGND DFF
X_delay_U6         delay_N00908 delay_N00936 delay_N00912 M_UN0004 $G_DPWR
+  $G_DGND DFF
X_delay_U3         delay_N00896 delay_N00936 delay_N00900 M_UN0005 $G_DPWR
+  $G_DGND DFF
X_delay_U8         delay_N00916 delay_N00936 delay_N00920 M_UN0006 $G_DPWR
+  $G_DGND DFF
X_delay_U5         delay_N00904 delay_N00936 delay_N00908 M_UN0007 $G_DPWR
+  $G_DGND DFF
X_delay_U2         delay_N00892 delay_N00936 delay_N00896 M_UN0008 $G_DPWR
+  $G_DGND DFF
X_delay_U10         delay_N00924 delay_N00936 ECHO_A M_UN0009 $G_DPWR $G_DGND
+  DFF
X_delay_U7         delay_N00912 delay_N00936 delay_N00916 M_UN0010 $G_DPWR
+  $G_DGND DFF
X_delay_U4         delay_N00900 delay_N00936 delay_N00904 M_UN0011 $G_DPWR
+  $G_DGND DFF
U_delay_DSTM1         STIM(1,1) $G_DPWR $G_DGND delay_N00936 IO_STM IO_LEVEL=0 
+ 0 0
+ +6.25us 1
+REPEAT FOREVER
+ +6.25us 0
+  +6.25us 1
+ ENDREPEAT
X_delay_U1         SOUND delay_N00936 delay_N00892 M_UN0012 $G_DPWR $G_DGND DFF

**** RESUMING root_tran8.cir ****
.END


**** Generated AtoD and DtoA Interfaces ****

*
* Analog/Digital interface for node SOUND
*
* Moving X_delay_U1.U1:D1 from analog node SOUND to new digital node SOUND$AtoD
X$SOUND_AtoD1
+ SOUND
+ SOUND$AtoD
+ $G_DPWR
+ $G_DGND
+ AtoDdefault
+       PARAMS: CAPACITANCE=   0     
*
* Analog/Digital interface for node ECHO_A
*
* Moving X_delay_U10.U1:Q1 from analog node ECHO_A to new digital node ECHO_A$DtoA
X$ECHO_A_DtoA1
+ ECHO_A$DtoA
+ ECHO_A
+ $G_DPWR
+ $G_DGND
+ DtoAdefault
+       PARAMS: DRVH=  50     DRVL=  50     CAPACITANCE=   0     
*
* Analog/Digital interface for node ECHO_D
*
* Moving X_U7.U1:IN1 from analog node ECHO_D to new digital node ECHO_D$AtoD
X$ECHO_D_AtoD1
+ ECHO_D
+ ECHO_D$AtoD
+ $G_DPWR
+ $G_DGND
+ AtoDdefault
+       PARAMS: CAPACITANCE=   0     
*
* Analog/Digital interface for node N29999
*
* Moving X_U1A.U1:IN1 from analog node N29999 to new digital node N29999$AtoD
X$N29999_AtoD1
+ N29999
+ N29999$AtoD
+ $G_DPWR
+ $G_DGND
+ AtoD_HC_ST
+       PARAMS: CAPACITANCE=   3.5000E-12
*
* Analog/Digital interface for node TRANSMIT
*
* Moving X_U7.U1:IN2 from analog node TRANSMIT to new digital node TRANSMIT$AtoD
X$TRANSMIT_AtoD1
+ TRANSMIT
+ TRANSMIT$AtoD
+ $G_DPWR
+ $G_DGND
+ AtoDdefault
+       PARAMS: CAPACITANCE=   0     
* Moving X_U1A.U1:OUT1 from analog node TRANSMIT to new digital node TRANSMIT$DtoA
X$TRANSMIT_DtoA1
+ TRANSMIT$DtoA
+ TRANSMIT
+ $G_DPWR
+ $G_DGND
+ DtoA_HC
+       PARAMS: DRVH=  87     DRVL=  87     CAPACITANCE=   0     
*
* Analog/Digital interface for node C_CLK
*
* Moving X_CD4026_1_U1A.UCD4518BLOG:IN1 from analog node C_CLK to new digital node C_CLK$AtoD
X$C_CLK_AtoD1
+ C_CLK
+ C_CLK$AtoD
+ $G_CD4000_VDD
+ $G_CD4000_VSS
+ AtoD_4000B
+       PARAMS: CAPACITANCE=   0     
* Moving X_CD4026_1_U3.U1:CLK from analog node C_CLK to new digital node C_CLK$AtoD2
X$C_CLK_AtoD2
+ C_CLK
+ C_CLK$AtoD2
+ $G_DPWR
+ $G_DGND
+ AtoDdefault
+       PARAMS: CAPACITANCE=   0     
*
* Analog/Digital interface power supply subcircuits
*
X$CD4000_PWR 0 CD4000_PWR
X$DIGIFPWR 0 DIGIFPWR


**** 12/03/22 23:54:18 ******* PSpice 17.4.0 (Nov 2018) ******* ID# 0 ********

 ** Profile: "root-root_tran8"  [ D:\cad\cadence\eed3009-pspicefiles\root\root_tran8.sim ] 


 ****     Diode MODEL PARAMETERS


******************************************************************************




               X_U3.DIODE      X_U2.DIODE      X_U6.DIODE      X_D2.model201   
          IS   10.000000E-15   10.000000E-15   10.000000E-15    1.760300E-27 
           N                                                    2            
          BV                                                    5            
         IBV                                                   10.000000E-06 
          RS     .01             .01             .01            2            


               X_U8.x1.Dlim    X_U8.x1.Dz      
          IS   10.000000E-15   50.000000E-15 
          BV                    7.11         
         IBV                   50.000000E-09 
          RS                    3            
          VJ     .7                          


               X_U10A.x_lm393.dx 
          IS  800.000000E-18 
          RS    1            


               X_U10B.x_lm393.dx               D74CLMP         
          IS  800.000000E-18                    1.000000E-15 
          RS    1                               2            
         CJO    2.000000E-12 


**** 12/03/22 23:54:18 ******* PSpice 17.4.0 (Nov 2018) ******* ID# 0 ********

 ** Profile: "root-root_tran8"  [ D:\cad\cadence\eed3009-pspicefiles\root\root_tran8.sim ] 


 ****     BJT MODEL PARAMETERS


******************************************************************************




               X_U8.x1.Npn1    X_U10A.x_lm393.qin 
               NPN             PNP             
       LEVEL    1               1            
          IS   10.000000E-15  800.000000E-18 
          BF   50               2.000000E+03 
          NF    1               1            
          BR    1               1            
          NR    1               1            
         ISS    0               0            
          RE    0               0            
          RC    0               0            
         CJE    0               0            
         VJE     .75             .75         
         CJC    0               0            
         VJC     .75             .75         
         MJC     .33             .33         
        XCJC    1               1            
         CJS    0               0            
         VJS     .75             .75         
          KF    0               0            
          AF    1               1            
          CN    2.42            2.2          
           D     .87             .52         


               X_U10A.x_lm393.qmi 
               NPN             
       LEVEL    1            
          IS  800.000000E-18 
          BF    1.002000E+03 
          NF    1            
          BR    1            
          NR    1            
         ISS    0            
          RE    0            
          RC    0            
         CJE    0            
         VJE     .75         
         CJC    0            
         VJC     .75         
         MJC     .33         
        XCJC    1            
         CJS    0            
         VJS     .75         
          KF    0            
          AF    1            
          CN    2.42         
           D     .87         


               X_U10A.x_lm393.qmo 
               NPN             
       LEVEL    1            
          IS  800.000000E-18 
          BF    1.000000E+03 
          NF    1            
          BR    1            
          NR    1            
         ISS    0            
          RE    0            
          RC    0            
         CJE    0            
         VJE     .75         
         CJC    1.000000E-15 
         VJC     .75         
         MJC     .33         
        XCJC    1            
         CJS    0            
         VJS     .75         
          TR  475.400000E-09 
          KF    0            
          AF    1            
          CN    2.42         
           D     .87         


               X_U10A.x_lm393.qoc 
               NPN             
       LEVEL    1            
          IS  800.000000E-18 
          BF   20.690000E+03 
          NF    1            
          BR    1            
          NR    1            
         ISS    0            
          RE    0            
          RC    0            
         CJE    0            
         VJE     .75         
         CJC    1.000000E-15 
         VJC     .75         
         MJC     .33         
        XCJC    1            
         CJS    0            
         VJS     .75         
          TF    3.540000E-09 
          TR  472.800000E-09 
          KF    0            
          AF    1            
          CN    2.42         
           D     .87         


               X_U10B.x_lm393.qin 
               PNP             
       LEVEL    1            
          IS  800.000000E-18 
          BF    2.000000E+03 
          NF    1            
          BR    1            
          NR    1            
         ISS    0            
          RE    0            
          RC    0            
         CJE    0            
         VJE     .75         
         CJC    0            
         VJC     .75         
         MJC     .33         
        XCJC    1            
         CJS    0            
         VJS     .75         
          KF    0            
          AF    1            
          CN    2.2          
           D     .52         


               X_U10B.x_lm393.qmi 
               NPN             
       LEVEL    1            
          IS  800.000000E-18 
          BF    1.002000E+03 
          NF    1            
          BR    1            
          NR    1            
         ISS    0            
          RE    0            
          RC    0            
         CJE    0            
         VJE     .75         
         CJC    0            
         VJC     .75         
         MJC     .33         
        XCJC    1            
         CJS    0            
         VJS     .75         
          KF    0            
          AF    1            
          CN    2.42         
           D     .87         


               X_U10B.x_lm393.qmo 
               NPN             
       LEVEL    1            
          IS  800.000000E-18 
          BF    1.000000E+03 
          NF    1            
          BR    1            
          NR    1            
         ISS    0            
          RE    0            
          RC    0            
         CJE    0            
         VJE     .75         
         CJC    1.000000E-15 
         VJC     .75         
         MJC     .33         
        XCJC    1            
         CJS    0            
         VJS     .75         
          TR  475.400000E-09 
          KF    0            
          AF    1            
          CN    2.42         
           D     .87         


               X_U10B.x_lm393.qoc 
               NPN             
       LEVEL    1            
          IS  800.000000E-18 
          BF   20.690000E+03 
          NF    1            
          BR    1            
          NR    1            
         ISS    0            
          RE    0            
          RC    0            
         CJE    0            
         VJE     .75         
         CJC    1.000000E-15 
         VJC     .75         
         MJC     .33         
        XCJC    1            
         CJS    0            
         VJS     .75         
          TF    3.540000E-09 
          TR  472.800000E-09 
          KF    0            
          AF    1            
          CN    2.42         
           D     .87         


**** 12/03/22 23:54:18 ******* PSpice 17.4.0 (Nov 2018) ******* ID# 0 ********

 ** Profile: "root-root_tran8"  [ D:\cad\cadence\eed3009-pspicefiles\root\root_tran8.sim ] 


 ****     Junction FET MODEL PARAMETERS


******************************************************************************




               X_U3.JNEMOD     X_U2.JNEMOD     X_U6.JNEMOD     
               NJF             NJF             NJF             
         VTO   -2.5            -2.5            -2.5          
        BETA    5.120000E-06    5.120000E-06    5.120000E-06 


**** 12/03/22 23:54:18 ******* PSpice 17.4.0 (Nov 2018) ******* ID# 0 ********

 ** Profile: "root-root_tran8"  [ D:\cad\cadence\eed3009-pspicefiles\root\root_tran8.sim ] 


 ****     MOSFET MODEL PARAMETERS


******************************************************************************




               nnMOS           ppMOS           X_U3.PCHAN555   X_U3.NCHAN555   
               NMOS            PMOS            PMOS            NMOS            
       LEVEL    2               2               1               1            
           L  100.000000E-06  100.000000E-06  100.000000E-06  100.000000E-06 
           W  100.000000E-06  100.000000E-06  100.000000E-06  100.000000E-06 
         VTO    1.4            -1               -.2              .2          
          KP  600.000000E-06  600.000000E-06   20.000000E-06   20.000000E-06 
       GAMMA    0               0               0               0            
         PHI     .6              .6              .6              .6          
      LAMBDA    5.000000E-03     .01            0               0            
          IS   10.000000E-15   10.000000E-15   10.000000E-15   10.000000E-15 
          JS    0               0               0               0            
          PB     .8              .8              .8              .8          
        PBSW     .8              .8              .8              .8          
          CJ    0               0               0               0            
        CJSW    0               0               0               0            
        CGSO    0               0               1.000000E-12    1.000000E-12 
        CGDO    0               0               1.000000E-12    1.000000E-12 
        CGBO    0               0               1.000000E-12    1.000000E-12 
         TOX  100.000000E-09  100.000000E-09    0               0            
          XJ    0               0               0               0            
       UCRIT   10.000000E+03   10.000000E+03   10.000000E+03   10.000000E+03 
      DIOMOD    1               1               1               1            
         VFB    0               0               0               0            
        LETA    0               0               0               0            
        WETA    0               0               0               0            
          U0    0               0               0               0            
        TEMP    0               0               0               0            
         VDD    5               5               5               5            
       XPART    0               0               0               0            


               X_U3.PCHAN555_OUT               X_U2.PCHAN555   X_U2.NCHAN555   
               PMOS                            PMOS            NMOS            
       LEVEL    1                               1               1            
           L  100.000000E-06                  100.000000E-06  100.000000E-06 
           W  100.000000E-06                  100.000000E-06  100.000000E-06 
         VTO    -.2                             -.2              .2          
          KP   20.000000E-06                   20.000000E-06   20.000000E-06 
       GAMMA    0                               0               0            
         PHI     .6                              .6              .6          
      LAMBDA    0                               0               0            
          IS   10.000000E-15                   10.000000E-15   10.000000E-15 
          JS    0                               0               0            
          PB     .8                              .8              .8          
        PBSW     .8                              .8              .8          
         CBD  200.000000E-12                                                 
          CJ    0                               0               0            
        CJSW    0                               0               0            
        CGSO    1.000000E-12                    1.000000E-12    1.000000E-12 
        CGDO    1.000000E-12                    1.000000E-12    1.000000E-12 
        CGBO    1.000000E-12                    1.000000E-12    1.000000E-12 
         TOX    0                               0               0            
          XJ    0                               0               0            
       UCRIT   10.000000E+03                   10.000000E+03   10.000000E+03 
      DIOMOD    1                               1               1            
         VFB    0                               0               0            
        LETA    0                               0               0            
        WETA    0                               0               0            
          U0    0                               0               0            
        TEMP    0                               0               0            
         VDD    5                               5               5            
       XPART    0                               0               0            


               X_U2.PCHAN555_OUT               X_U6.PCHAN555   X_U6.NCHAN555   
               PMOS                            PMOS            NMOS            
       LEVEL    1                               1               1            
           L  100.000000E-06                  100.000000E-06  100.000000E-06 
           W  100.000000E-06                  100.000000E-06  100.000000E-06 
         VTO    -.2                             -.2              .2          
          KP   20.000000E-06                   20.000000E-06   20.000000E-06 
       GAMMA    0                               0               0            
         PHI     .6                              .6              .6          
      LAMBDA    0                               0               0            
          IS   10.000000E-15                   10.000000E-15   10.000000E-15 
          JS    0                               0               0            
          PB     .8                              .8              .8          
        PBSW     .8                              .8              .8          
         CBD  200.000000E-12                                                 
          CJ    0                               0               0            
        CJSW    0                               0               0            
        CGSO    1.000000E-12                    1.000000E-12    1.000000E-12 
        CGDO    1.000000E-12                    1.000000E-12    1.000000E-12 
        CGBO    1.000000E-12                    1.000000E-12    1.000000E-12 
         TOX    0                               0               0            
          XJ    0                               0               0            
       UCRIT   10.000000E+03                   10.000000E+03   10.000000E+03 
      DIOMOD    1                               1               1            
         VFB    0                               0               0            
        LETA    0                               0               0            
        WETA    0                               0               0            
          U0    0                               0               0            
        TEMP    0                               0               0            
         VDD    5                               5               5            
       XPART    0                               0               0            


               X_U6.PCHAN555_OUT 
               PMOS            
       LEVEL    1            
           L  100.000000E-06 
           W  100.000000E-06 
         VTO    -.2          
          KP   20.000000E-06 
       GAMMA    0            
         PHI     .6          
      LAMBDA    0            
          IS   10.000000E-15 
          JS    0            
          PB     .8          
        PBSW     .8          
         CBD  200.000000E-12 
          CJ    0            
        CJSW    0            
        CGSO    1.000000E-12 
        CGDO    1.000000E-12 
        CGBO    1.000000E-12 
         TOX    0            
          XJ    0            
       UCRIT   10.000000E+03 
      DIOMOD    1            
         VFB    0            
        LETA    0            
        WETA    0            
          U0    0            
        TEMP    0            
         VDD    5            
       XPART    0            


**** 12/03/22 23:54:18 ******* PSpice 17.4.0 (Nov 2018) ******* ID# 0 ********

 ** Profile: "root-root_tran8"  [ D:\cad\cadence\eed3009-pspicefiles\root\root_tran8.sim ] 


 ****     Voltage Controlled Switch MODEL PARAMETERS


******************************************************************************




               X_U8.x1.Sbg1    
         RON    1            
        ROFF    1.000000E+06 
         VON    3.7          
        VOFF    3            


**** 12/03/22 23:54:18 ******* PSpice 17.4.0 (Nov 2018) ******* ID# 0 ********

 ** Profile: "root-root_tran8"  [ D:\cad\cadence\eed3009-pspicefiles\root\root_tran8.sim ] 


 ****     Digital Input MODEL PARAMETERS


******************************************************************************




               DIN74           DIN74HC         
      S0NAME 0               0               
       S0TSW    3.500000E-09    5.000000E-09 
       S0RLO    7.13            1            
       S0RHI  389             100.000000E+03 
      S1NAME 1               1               
       S1TSW    5.500000E-09    5.000000E-09 
       S1RLO  467             100.000000E+03 
       S1RHI  200               1            
      S2NAME X               X               
       S2TSW    3.500000E-09    5.000000E-09 
       S2RLO   42.9           110            
       S2RHI  116             100            
      S3NAME R               R               
       S3TSW    3.500000E-09    5.000000E-09 
       S3RLO   42.9           110            
       S3RHI  116             100            
      S4NAME F               F               
       S4TSW    3.500000E-09    5.000000E-09 
       S4RLO   42.9           110            
       S4RHI  116             100            
      S5NAME Z               Z               
       S5TSW    3.500000E-09    5.000000E-09 
       S5RLO  200.000000E+03  200.000000E+03 
       S5RHI  200.000000E+03  200.000000E+03 


**** 12/03/22 23:54:18 ******* PSpice 17.4.0 (Nov 2018) ******* ID# 0 ********

 ** Profile: "root-root_tran8"  [ D:\cad\cadence\eed3009-pspicefiles\root\root_tran8.sim ] 


 ****     Digital Output MODEL PARAMETERS


******************************************************************************




               DO74            DO74HC_ST       DO4000B         
    TIMESTEP  100.000000E-12  100.000000E-12  100.000000E-12 
      S0NAME X               0               X               
       S0VHI    2                .55             .5          
       S0VLO     .8            -1.3             -.5          
      S1NAME 0               1               0               
       S1VHI     .8             1.3             -.5          
       S1VLO   -1.5              .33           -3            
      S2NAME R                               R               
       S2VHI    1.4                              .05         
       S2VLO     .8                             -.5          
      S3NAME R                               R               
       S3VHI    2                                .5          
       S3VLO    1.3                             -.05         
      S4NAME X                               X               
       S4VHI    2                                .5          
       S4VLO     .8                             -.5          
      S5NAME 1                               1               
       S5VHI    7                               3            
       S5VLO    2                                .5          
      S6NAME F                               F               
       S6VHI    2                                .5          
       S6VLO    1.3                             -.05         
      S7NAME F                               F               
       S7VHI    1.4                              .05         
       S7VLO     .8                             -.5          


**** 12/03/22 23:54:18 ******* PSpice 17.4.0 (Nov 2018) ******* ID# 0 ********

 ** Profile: "root-root_tran8"  [ D:\cad\cadence\eed3009-pspicefiles\root\root_tran8.sim ] 


 ****     Digital Gate MODEL PARAMETERS


******************************************************************************




               D_HC14          D0_GATE         D_PLD_GATE      
      TPLHMN    4.800000E-09    0               0            
      TPLHTY   12.000000E-09    0               0            
      TPLHMX   31.000000E-09    0               0            
      TPHLMN    4.800000E-09    0               0            
      TPHLTY   12.000000E-09    0               0            
      TPHLMX   31.000000E-09    0               0            


**** 12/03/22 23:54:18 ******* PSpice 17.4.0 (Nov 2018) ******* ID# 0 ********

 ** Profile: "root-root_tran8"  [ D:\cad\cadence\eed3009-pspicefiles\root\root_tran8.sim ] 


 ****     Digital Edge Triggered FF MODEL PARAMETERS


******************************************************************************




               D0_EFF          D_PLD_EFF       
  TPCLKQLHMN    0               0            
  TPCLKQLHTY    0               0            
  TPCLKQLHMX    0               0            
  TPCLKQHLMN    0               0            
  TPCLKQHLTY    0               0            
  TPCLKQHLMX    0               0            
   TPPCQLHMN    0               0            
   TPPCQLHTY    0               0            
   TPPCQLHMX    0               0            
   TPPCQHLMN    0               0            
   TPPCQHLTY    0               0            
   TPPCQHLMX    0               0            
    TWCLKLMN    0               0            
    TWCLKLTY    0               0            
    TWCLKLMX    0               0            
    TWCLKHMN    0               0            
    TWCLKHTY    0               0            
    TWCLKHMX    0               0            
     TWPCLMN    0               0            
     TWPCLTY    0               0            
     TWPCLMX    0               0            
   TSUDCLKMN    0               0            
   TSUDCLKTY    0               0            
   TSUDCLKMX    0               0            
 TSUPCCLKHMN    0               0            
 TSUPCCLKHTY    0               0            
 TSUPCCLKHMX    0               0            
    THDCLKMN    0               0            
    THDCLKTY    0               0            
    THDCLKMX    0               0            
  TSUCECLKMN    0               0            
  TSUCECLKTY    0               0            
  TSUCECLKMX    0               0            
   THCECLKMN    0               0            
   THCECLKTY    0               0            
   THCECLKMX    0               0            


**** 12/03/22 23:54:18 ******* PSpice 17.4.0 (Nov 2018) ******* ID# 0 ********

 ** Profile: "root-root_tran8"  [ D:\cad\cadence\eed3009-pspicefiles\root\root_tran8.sim ] 


 ****     Digital IO  MODEL PARAMETERS


******************************************************************************




               IO_STM          IO_HC_ST        IO_4000B        IO_PLD          
        INLD                    3.500000E-12                                 
        DRVL    0              87               1.443000E+03                 
        DRVH    0              87               1.443000E+03                 
       AtoD1                 AtoD_HC_ST      AtoD_4000B                      
       AtoD2                 AtoD_HC_ST      AtoD_4000B_NX                   
       AtoD3                 AtoD_HC_ST      AtoD_4000B                      
       AtoD4                 AtoD_HC_ST      AtoD_4000B_NX                   
       DtoA1 DtoA_STM        DtoA_HC         DtoA_4000B                      
       DtoA2 DtoA_STM        DtoA_HC         DtoA_4000B                      
       DtoA3 DtoA_STM        DtoA_HC_E       DtoA_4000B                      
       DtoA4 DtoA_STM        DtoA_HC_E       DtoA_4000B                      
    DIGPOWER                                 CD4000_PWR                      
      TSWHL1                    2.742000E-09    7.720000E-09                 
      TSWHL2                    2.742000E-09    7.860000E-09                 
      TSWHL3                    2.751000E-09    9.710000E-09                 
      TSWHL4                    2.751000E-09    9.630000E-09                 
      TSWLH1                    2.758000E-09    7.560000E-09                 
      TSWLH2                    2.758000E-09    7.400000E-09                 
      TSWLH3                    2.763000E-09    9.410000E-09                 
      TSWLH4                    2.763000E-09    9.240000E-09                 
       TPWRT  100.000000E+03    2.000000E-09  100.000000E+03  100.000000E+03 


               IO_DFT          IO_HC           IO_HC_DTOA      
        INLD                    3.500000E-12                 
        DRVL                   87                            
        DRVH                   87                            
       AtoD1 AtoD_STD        AtoD_HC                         
       AtoD2 AtoD_STD_NX     AtoD_HC_NX                      
       AtoD3 AtoD_STD        AtoD_HC                         
       AtoD4 AtoD_STD_NX     AtoD_HC_NX                      
       DtoA1 DtoA_STD        DtoA_HC                         
       DtoA2 DtoA_STD        DtoA_HC                         
       DtoA3 DtoA_STD        DtoA_HC_E                       
       DtoA4 DtoA_STD        DtoA_HC_E                       
      TSWHL1                    2.742000E-09                 
      TSWHL2                    2.742000E-09                 
      TSWHL3                    2.751000E-09                 
      TSWHL4                    2.751000E-09                 
      TSWLH1                    2.758000E-09                 
      TSWLH2                    2.758000E-09                 
      TSWLH3                    2.763000E-09                 
      TSWLH4                    2.763000E-09                 
       TPWRT  100.000000E+03    2.000000E-09  100.000000E+03 


**** 12/03/22 23:54:18 ******* PSpice 17.4.0 (Nov 2018) ******* ID# 0 ********

 ** Profile: "root-root_tran8"  [ D:\cad\cadence\eed3009-pspicefiles\root\root_tran8.sim ] 


 ****     INITIAL TRANSIENT SOLUTION       TEMPERATURE =   27.000 DEG C


******************************************************************************



 NODE   VOLTAGE     NODE   VOLTAGE     NODE   VOLTAGE     NODE   VOLTAGE


(  VDD)    4.9966  (  VLP)     .1028  (  VO+)    4.9966  (  VO-) 2.315E-06      

(  VPA)     .1815  (  VPC)     .1017  (C_CLK)    4.9966  (SOUND) 416.7E-09      

(/SOUND)    4.9966 (ECHO_A)    1.3365 (ECHO_D)     .1017 (N29217)     .1025     

(N29421)   -1.6500 (N29551)    3.3310 (N29853)    -.4351 (N29991)   -1.6500     

(N29999)    4.9966 (N30031)    3.3310 (N74582)    1.4006 (N74666)   -1.6500     

(N74696)    3.3310 (N86762)    9.0000 (N97476)    3.6776 (N97556)     .1747     

(N97588)     .1030 (N97606)    3.8365 (N98046)     .1034 (N98078)    2.9979     

(X_U2.1)    4.9966 (X_U2.2)    1.6655 (X_U2.3) 33.16E+03 (X_U2.4)    4.1966     

(X_U2.5)    4.0827 (X_U2.6)-49.81E+03 (X_U2.7)    4.1966 (X_U2.8)    -.6967     

(X_U2.9)    4.9966 (X_U3.1) 416.7E-09 (X_U3.2)    1.6655 (X_U3.3) 33.16E+03     

(X_U3.4)    4.1966 (X_U3.5)    4.0827 (X_U3.6)-49.81E+03 (X_U3.7)    4.1966     

(X_U3.8)    -.6967 (X_U3.9) 26.04E-09 (X_U6.1) 416.7E-09 (X_U6.2)    1.6655     

(X_U6.3) 33.16E+03 (X_U6.4)    4.1966 (X_U6.5)    4.0827 (X_U6.6)-49.81E+03     

(X_U6.7)    4.1966 (X_U6.8)    -.6967 (X_U6.9) 26.04E-09 ($G_DGND)    0.0000    

($G_DPWR)    5.0000                   (N109008)    0.0000                       

(N293890)    4.9966                   (REF_2V5)    2.4987                       

(X_U2.10) 347.2E-09                   (X_U2.11)    4.9966                       

(X_U2.12) 26.04E-09                   (X_U2.13)    4.9966                       

(X_U2.14)    4.9966                   (X_U2.15)    2.4983                       

(X_U2.16)     .2010                   (X_U2.17) 99.98E-09                       

(X_U2.18)    4.9965                   (X_U2.19)    4.7956                       

(X_U2.20)    4.9966                   (X_U2.21)     .1033                       

(X_U2.22)    2.4983                   (X_U2.23)    4.8827                       

(X_U2.24) 106.7E-09                   (X_U2.25)    4.9965                       

(X_U3.10)    4.9966                   (X_U3.11)    2.4983                       

(X_U3.12)    4.9966                   (X_U3.13) 416.7E-09                       

(X_U3.14) 347.2E-09                   (X_U3.15)    4.9966                       

(X_U3.16)    4.9966                   (X_U3.17)    4.9966                       

(X_U3.18) 416.7E-09                   (X_U3.19) 208.3E-09                       

(X_U3.20)    4.9966                   (X_U3.21)     .1033                       

(X_U3.22)    2.4983                   (X_U3.23)    4.8827                       

(X_U3.24) 106.7E-09                   (X_U3.25) 104.2E-09                       

(X_U6.10)    4.9966                   (X_U6.11)    2.4983                       

(X_U6.12)    4.9966                   (X_U6.13) 416.7E-09                       

(X_U6.14) 347.2E-09                   (X_U6.15)    4.9966                       

(X_U6.16)    4.9966                   (X_U6.17)    4.9966                       

(X_U6.18) 416.7E-09                   (X_U6.19) 208.3E-09                       

(X_U6.20)    4.9966                   (X_U6.21)     .1033                       

(X_U6.22)    2.4983                   (X_U6.23)    4.8827                       

(X_U6.24) 106.7E-09                   (X_U6.25) 104.2E-09                       

(TRANSMIT)     .0022                  (X_U2.VDD)    4.9966                      

(X_U3.VDD)    4.9966                  (X_U6.VDD)    4.9966                      

(X_U8.x1.4)    6.3397                 (X_U8.x1.5)    6.3248                     

(X_U8.x1.6)    5.6772                 (X_U8.x1.7)    5.0027                     

(X_U8.x1.8)    4.9967                 (X_U8.x1.9)    4.9967                     

(X_U8.x1.55)    5.0027                (X_U8.x1.56)    5.0028                    

(X_U8.x1.100)    7.4000               (X_U8.x1.101)    3.7004                   

(X_U8.x1.102)    9.0000               (X_U8.x1.105)    6.3397                   

(X_U8.x1.106)    6.3397               (X_U8.x1.107)    1.0000                   

(X_U8.x1.108)    8.0000               (X_U8.x1.200) 1665.0000                   

($G_CD4000_VDD)    5.0000             ($G_CD4000_VSS)    0.0000                 

(X_U10A.x_lm393.7)    1.5856          (X_U10A.x_lm393.8)     .3989              

(X_U10A.x_lm393.9)     .7625          (X_U10B.x_lm393.7)    1.5139              

(X_U10B.x_lm393.8)     .4015          (X_U10B.x_lm393.9)     .7625              

(X_U10A.x_lm393.10)     .7625         (X_U10A.x_lm393.11)     .7625             

(X_U10A.x_lm393.21)     .9247         (X_U10A.x_lm393.22)    3.2487             

(X_U10B.x_lm393.10)     .7625         (X_U10B.x_lm393.11)     .7625             

(X_U10B.x_lm393.21)     .8530         (X_U10B.x_lm393.22)    3.7479             

(X$C_CLK_AtoD1.NORM)    1.2483        (X_U5A.xinstlm358.1) 36.15E-06            

(X_U5A.xinstlm358.2)    3.1363        (X_U5A.xinstlm358.4)     .0793            

(X_U5A.xinstlm358.5)    3.1085        (X_U5A.xinstlm358.6)    2.4987            

(X_U5A.xinstlm358.7) 1000.0000        (X_U5A.xinstlm358.9)    3.1000            

(X_U9A.xinstlm358.1)     .0394        (X_U9A.xinstlm358.2)     .6965            

(X_U9A.xinstlm358.4)     .0409        (X_U9A.xinstlm358.5)     .6960            

(X_U9A.xinstlm358.6)     .1033        (X_U9A.xinstlm358.7) 1000.0000            

(X_U9A.xinstlm358.9)    3.1000        (X$N29999_AtoD1.NORM)     .9993           

(X_U5A.xinstlm358.10)     .0024       (X_U5A.xinstlm358.11)    -.9654           

(X_U5A.xinstlm358.12)    0.0000       (X_U5A.xinstlm358.14)    2.4253           

(X_U5A.xinstlm358.15)    2.4253       (X_U5A.xinstlm358.16)     .9654           

(X_U5A.xinstlm358.17)    3.1363       (X_U5A.xinstlm358.18)    3.9240           

(X_U5A.xinstlm358.20) 40.03E-06       (X_U5A.xinstlm358.21)    -.5721           

(X_U5A.xinstlm358.22)     .0100       (X_U5A.xinstlm358.24) 1000.8000           

(X_U5A.xinstlm358.25)     .0024       (X_U5A.xinstlm358.26)     .7303           

(X_U5A.xinstlm358.27)    -.7253       (X_U9A.xinstlm358.10)     .1185           

(X_U9A.xinstlm358.11)    -.8493       (X_U9A.xinstlm358.12)    0.0000           

(X_U9A.xinstlm358.14)    2.4198       (X_U9A.xinstlm358.15)    2.4198           

(X_U9A.xinstlm358.16)     .8493       (X_U9A.xinstlm358.17)     .7103           

(X_U9A.xinstlm358.18)    2.4370       (X_U9A.xinstlm358.20) 40.03E-06           

(X_U9A.xinstlm358.21)    -.5747       (X_U9A.xinstlm358.22)     .0056           

(X_U9A.xinstlm358.24) 1000.8000       (X_U9A.xinstlm358.25)     .1185           

(X_U9A.xinstlm358.26)     .8464       (X_U9A.xinstlm358.27)    -.6094           

(X$TRANSMIT_DtoA1.DGND_OL)     .0022  (X$TRANSMIT_DtoA1.DPWR_OH)    4.9975      

(X$C_CLK_AtoD1.XNORM.THRESHOLD)    1.5000                



 DGTL NODE : STATE  DGTL NODE : STATE  DGTL NODE : STATE  DGTL NODE : STATE


(X_CD4026_2_U1A.D1) : 1               (M_UN0006) : X     (  N32659) : 0         

(X_CD4026_2_U1A.D2) : 1               (M_UN0003) : X                            

(X_CD4026_2_U1A.RESET) : 0            (X_CD4026_2_U1A.CLK4) : 1                 

(X_CD4026_1_U1A.D3) : 1               (X_CD4026_2_U1A.Q4) : 0                   

(X_CD4026_2_U1A.CLK1) : X             (X_CD4026_1_U1A.CLK4) : 1                 

(X_CD4026_1_U1A.D4) : 1               (X_CD4026_1_U1A.Q1BAR) : 1                

(X_CD4026_2_U1A.Q1) : 0               (X_CD4026_1_U1A.CLK1) : 1                 

(X_CD4026_2_U1A.CLK) : X              (  N32671) : 0     (delay_N00900) : X     

(X_CD4026_2_U1A.Q2) : 0               (  N32655) : 0     (  N84729) : X         

(delay_N00924) : X                    (X_CD4026_2_U1A.Q2BAR) : 1                

(X_CD4026_1_U1A.Q3) : 0               (M_UN0010) : X     (delay_N00896) : X     

(  N32613) : X     (TRANSMIT$AtoD) : 0                   (   $D_HI) : 1         

(X_CD4026_1_U1A.Q4) : 0               (C_CLK$AtoD) : 1   (M_UN0007) : X         

(SOUND$AtoD) : 0   (N29999$AtoD) : 1  (X_CD4026_2_U1A.D3) : 1                   

(M_UN0004) : X     (X_CD4026_1_U1A.RESETBAR) : 1                                

(X_CD4026_1_U1A.Q4BAR) : 1            (  N32667) : 0     (M_UN0001) : X         

(ECHO_A$DtoA) : X  (X_CD4026_2_U1A.CLK2) : 1                                    

(X_CD4026_2_U1A.Q1BAR) : 1            (delay_N00920) : X                        

(X_CD4026_1_U1A.CLK2) : 1             (ECHO_D$AtoD) : 0                         

(X_CD4026_2_U1A.EN) : 1               (X_CD4026_2_U1A.Q3) : 0                   

(delay_N00892) : X                    (  N32683) : 0     (M_UN0008) : X         

(M_UN0011) : X     (CD4026_1_N004852) : 0                (TRANSMIT$DtoA) : 0    

(delay_N00908) : X                    (X_CD4026_1_U1A.Q3BAR) : 1                

(C_CLK$AtoD2) : 1  (  N32663) : 0     (delay_N00916) : X                        

(M_UN0005) : X     (X_CD4026_2_U1A.Q4BAR) : 1                                   

(X_CD4026_1_U1A.D1) : 1               (X_CD4026_2_U1A.RESETBAR) : 1             

(  N32679) : 0     (X_CD4026_1_U1A.RESET) : 0            (M_UN0002) : X         

(  N32745) : 0     (X_CD4026_2_U1A.CLK3) : 1                                    

(X_CD4026_1_U1A.D2) : 1               (X_CD4026_1_U1A.EN) : 1                   

(X_CD4026_1_U1A.CLK3) : 1             (CD4026_2_N004852) : 0                    

(M_UN0009) : X     (X_CD4026_1_U1A.Q1) : 0                                      

(X_CD4026_1_U1A.CLK) : 1              (M_UN0012) : X                            

(X_CD4026_1_U1A.Q2BAR) : 1            (  N32675) : 0     (delay_N00904) : X     

(X_CD4026_1_U1A.Q2) : 0               (X_CD4026_2_U1A.D4) : 1                   

(delay_N00912) : X                    (X_CD4026_2_U1A.Q3BAR) : 1                

(delay_N00936) : 0                    




    VOLTAGE SOURCE CURRENTS
    NAME         CURRENT

    V_V1        -2.202E-02
    X_U3.V_U6_V2   4.083E-09
    X_U3.V_U7_V2  -4.981E-03
    X_U2.V_U6_V2   4.083E-09
    X_U2.V_U7_V2  -4.981E-03
    X_U6.V_U6_V2   4.083E-09
    X_U6.V_U7_V2  -4.981E-03
    X_U8.x1.Vbg  -3.700E+00
    X_U8.x1.Vgainf  -1.665E+03
    X_U8.x1.Vl1   1.660E-09
    X_U8.x1.Vl2   5.340E-09
    X_U9A.xinstlm358.VFI7   1.822E+00
    X_U9A.xinstlm358.VFI6   8.493E-10
    X_U9A.xinstlm358.VREF   1.485E+00
    X_U10A.x_lm393.vi1   4.981E-08
    X_U10A.x_lm393.vi2  -2.851E-09
    X_U10A.x_lm393.v1   9.995E-05
    X_U10B.x_lm393.vi1   4.989E-08
    X_U10B.x_lm393.vi2  -3.348E-09
    X_U10B.x_lm393.v1   9.995E-05
    X_U5A.xinstlm358.VFI7   1.621E+02
    X_U5A.xinstlm358.VFI6   9.654E-10
    X_U5A.xinstlm358.VREF   1.485E+00
    X$CD4000_PWR.VVDD  -5.000E-06
    X$CD4000_PWR.VVSS  -4.945E-06
    X$DIGIFPWR.VDPWR  -3.164E-02
    X$DIGIFPWR.VDGND  -4.316E-04

    TOTAL POWER DISSIPATION   2.77E+06  WATTS


**** 12/03/22 23:54:18 ******* PSpice 17.4.0 (Nov 2018) ******* ID# 0 ********

 ** Profile: "root-root_tran8"  [ D:\cad\cadence\eed3009-pspicefiles\root\root_tran8.sim ] 


 ****     SIMULATION ERRORS


******************************************************************************




DIGITAL Message ID#1 (WARNING):
MAX-FREQUENCY Violation at time 12.2872us
  Device: X_CD4026_2_U1A.UCD4518BDLY
  Minimum Period = 666.6999999999999ns
  NODE: X_CD4026_2_U1A.CLK, measured period = 2.9ns


DIGITAL Message ID#2 (SERIOUS):
PERSISTENT Hazard at time 152.3516us
  Device: 
  at "DATA" input of X_CD4026_2_U3.U1
  See Message ID#1 for probable cause.
Reducing minimum delta to make the circuit converge.
Reducing minimum delta to make the circuit converge.
Reducing minimum delta to make the circuit converge.
Reducing minimum delta to make the circuit converge.
Reducing minimum delta to make the circuit converge.

ERROR(ORPSIM-15138): Convergence problem in Transient Analysis at Time =  .012.
         Time step =  177.9E-21, minimum allowable step size =  1.000E-18

  These voltages failed to converge:

    V(X_U9A.xinstlm358.16)    =  -431.12mV  \  -433.10mV
    V(X_U9A.xinstlm358.11)    =     2.657V  \  -155.65mV

  These supply currents failed to converge:

    I(X_U3.E_EMIR)            =   -3.501mA  \  -295.92uA
    I(X_U3.E_EVAL)            =  -638.44uA  \   -47.46uA
    I(X_U2.E_EMIR)            =   -73.42mA  \   -5.457mA
    I(X_U2.E_EVAL)            =   -7.354mA  \  -550.05uA
    I(X_U6.E_EMIR)            =  -143.66uA  \   -15.98uA
    I(X_U6.E_EVAL)            =    21.67uA  \    1.623uA
    I(X_U9A.xinstlm358.EU1)   =    12.71nA  \    57.42nA
    I(X_U9A.xinstlm358.EVM)   =    3.100nA  \  -159.75pA
    I(X_U9A.xinstlm358.EVP)   =   -18.45mA  \    1.078mA
    I(X_U10B.x_lm393.e1)      =   -99.66uA  \   -99.96uA
    I(X_U5A.xinstlm358.EU1)   =   -62.50mA  \   -3.906mA
    I(X_U9A.xinstlm358.VFI7)  =  -176.52nA  \  -190.84nA
    I(X_U9A.xinstlm358.VFI6)  =  -173.29nA  \  -187.62nA
    I(X_U10B.x_lm393.v1)      =    99.66uA  \    99.96uA
    I(X$CD4000_PWR.VVSS)      =   -5.113uA  \   -4.924uA
    I(X$DIGIFPWR.VDGND)       =    5.867mA  \   358.38uA

  These devices failed to converge:
    X_U9A.xinstlm358.D4 X_U9A.xinstlm358.D5 X$C_CLK_AtoD1.D1 X$C_CLK_AtoD1.D2 



  Last node voltages tried were:

 NODE   VOLTAGE     NODE   VOLTAGE     NODE   VOLTAGE     NODE   VOLTAGE


(  VDD)    4.9965  (  VLP)     .9329  (  VO+)    4.9964  (  VO-) 99.13E-06      

(  VPA)     .4597  (  VPC)     .1019  (C_CLK)    4.9963  (SOUND) 1.111E-06      

(/SOUND)    4.9965 (ECHO_A)     .0895 (ECHO_D)     .1018 (N29217)     .1034     

(N29421)     .8974 (N29551)    3.3310 (N29853)    1.8020 (N29991)    1.6742     

(N29999)    4.9965 (N30031)    3.3310 (N74582)    3.2131 (N74666)    1.7002     

(N74696)    3.3310 (N86762)    9.0000 (N97476)    2.3336 (N97556)     .4276     

(N97588)     .7671 (N97606)    2.4187 (N98046)     .9304 (N98078)    2.9978     

(X_U2.1)    4.9965 (X_U2.2)    1.6655 (X_U2.3) 7680.9000 (X_U2.4)    4.1965     

(X_U2.5)    4.0448 (X_U2.6)-24.34E+03 (X_U2.7)    4.1965 (X_U2.8)    -.6782     

(X_U2.9)    4.9963 (X_U3.1) 1.830E-06 (X_U3.2)    1.6655 (X_U3.3)  -87.0240     

(X_U3.4)    4.1965 (X_U3.5)    -.5325 (X_U3.6)-16.57E+03 (X_U3.7)    4.1965     

(X_U3.8)    -.6682 (X_U3.9)-7.523E-06 (X_U6.1) 1.270E-06 (X_U6.2)    1.6655     

(X_U6.3) -347.0000 (X_U6.4)    4.1965 (X_U6.5)    -.5682 (X_U6.6)-16.31E+03     

(X_U6.7)    4.1965 (X_U6.8)    -.6678 (X_U6.9)-5.253E-06 ($G_DGND)    0.0000    

($G_DPWR)    5.0000                   (N109008)    0.0000                       

(N293890)    4.9964                   (REF_2V5)    2.4987                       

(X_U2.10)-53.40E-06                   (X_U2.11)    4.9964                       

(X_U2.12)-191.8E-06                   (X_U2.13)    4.9965                       

(X_U2.14)    4.9964                   (X_U2.15)    2.4981                       

(X_U2.16)     .2011                   (X_U2.17)-2.913E-06                       

(X_U2.18)    4.9964                   (X_U2.19)    4.7954                       

(X_U2.20)    4.9961                   (X_U2.21)     .1218                       

(X_U2.22)    2.4973                   (X_U2.23)    4.8448                       

(X_U2.24) 248.2E-06                   (X_U2.25)    4.9965                       

(X_U3.10)    4.9965                   (X_U3.11)     .2017                       

(X_U3.12)    4.9962                   (X_U3.13) 1.830E-06                       

(X_U3.14)-57.42E-06                   (X_U3.15)    4.9964                       

(X_U3.16)    4.9961                   (X_U3.17) 359.6E-06                       

(X_U3.18)-57.53E-06                   (X_U3.19)-15.94E-06                       

(X_U3.20)    4.9964                   (X_U3.21)     .1318                       

(X_U3.22)    4.5377                   (X_U3.23)     .2675                       

(X_U3.24)    4.7376                   (X_U3.25)-8.201E-06                       

(X_U6.10)    4.9965                   (X_U6.11)     .2010                       

(X_U6.12)    4.9965                   (X_U6.13) 1.270E-06                       

(X_U6.14) 377.4E-09                   (X_U6.15)    4.9965                       

(X_U6.16)    4.9965                   (X_U6.17)-17.18E-06                       

(X_U6.18)-1.182E-06                   (X_U6.19) 286.7E-09                       

(X_U6.20)    4.9958                   (X_U6.21)     .1322                       

(X_U6.22)    4.7354                   (X_U6.23)     .2318                       

(X_U6.24)    4.9402                   (X_U6.25)-3.657E-06                       

(TRANSMIT)     .0022                  (X_U2.VDD)    4.9965                      

(X_U3.VDD)    4.9965                  (X_U6.VDD)    4.9965                      

(X_U8.x1.4)    6.3553                 (X_U8.x1.5)    6.3377                     

(X_U8.x1.6)    5.6860                 (X_U8.x1.7)    5.0045                     

(X_U8.x1.8)    4.9967                 (X_U8.x1.9)    4.9967                     

(X_U8.x1.55)    5.0045                (X_U8.x1.56)    5.0046                    

(X_U8.x1.100)    7.4000               (X_U8.x1.101)    3.7004                   

(X_U8.x1.102)    9.0000               (X_U8.x1.105)    6.3553                   

(X_U8.x1.106)    6.3553               (X_U8.x1.107)    1.0000                   

(X_U8.x1.108)    8.0000               (X_U8.x1.200) 1665.0000                   

($G_CD4000_VDD)    5.0000             ($G_CD4000_VSS)    0.0000                 

(X_U10A.x_lm393.7)    1.8385          (X_U10A.x_lm393.8)     .4004              

(X_U10A.x_lm393.9)     .7627          (X_U10B.x_lm393.7)    2.1779              

(X_U10B.x_lm393.8)     .4050          (X_U10B.x_lm393.9)     .7626              

(X_U10A.x_lm393.10)     .7627         (X_U10A.x_lm393.11)     .7627             

(X_U10A.x_lm393.21)    1.1776         (X_U10A.x_lm393.22)    3.2487             

(X_U10B.x_lm393.10)     .7626         (X_U10B.x_lm393.11)     .7626             

(X_U10B.x_lm393.21)    1.5171         (X_U10B.x_lm393.22)    3.7478             

(X$C_CLK_AtoD1.NORM)    1.2482        (X_U5A.xinstlm358.1)     .0790            

(X_U5A.xinstlm358.2)    2.9452        (X_U5A.xinstlm358.4) 446.4E-06            

(X_U5A.xinstlm358.5)    2.9727        (X_U5A.xinstlm358.6)    2.4986            

(X_U5A.xinstlm358.7) 1000.0000        (X_U5A.xinstlm358.9)    3.0999            

(X_U9A.xinstlm358.1)     .0378        (X_U9A.xinstlm358.2)    1.5254            

(X_U9A.xinstlm358.4)     .0422        (X_U9A.xinstlm358.5)    1.5239            

(X_U9A.xinstlm358.6)     .9304        (X_U9A.xinstlm358.7) 1000.0000            

(X_U9A.xinstlm358.9)    3.0999        (X$N29999_AtoD1.NORM)     .9993           

(X_U5A.xinstlm358.10)     .4271       (X_U5A.xinstlm358.11)    -.5407           

(X_U5A.xinstlm358.12)    0.0000       (X_U5A.xinstlm358.14)    2.4050           

(X_U5A.xinstlm358.15)    2.4050       (X_U5A.xinstlm358.16)     .5408           

(X_U5A.xinstlm358.17)    2.9729       (X_U5A.xinstlm358.18)    2.4054           

(X_U5A.xinstlm358.20) 40.03E-06       (X_U5A.xinstlm358.21)    -.5607           

(X_U5A.xinstlm358.22)     .0271       (X_U5A.xinstlm358.24) 1000.8000           

(X_U5A.xinstlm358.25)     .4271       (X_U5A.xinstlm358.26)    1.1550           

(X_U5A.xinstlm358.27)    -.3008       (X_U9A.xinstlm358.10)     .9638           

(X_U9A.xinstlm358.11)    2.6573       (X_U9A.xinstlm358.12)    0.0000           

(X_U9A.xinstlm358.14)    2.3587       (X_U9A.xinstlm358.15)    2.3587           

(X_U9A.xinstlm358.16)    -.4311       (X_U9A.xinstlm358.17)    1.5386           

(X_U9A.xinstlm358.18)    2.3590       (X_U9A.xinstlm358.20) 40.03E-06           

(X_U9A.xinstlm358.21)    -.5058       (X_U9A.xinstlm358.22)     .0889           

(X_U9A.xinstlm358.24) 1000.8000       (X_U9A.xinstlm358.25)     .9638           

(X_U9A.xinstlm358.26)    1.6916       (X_U9A.xinstlm358.27)     .2359           

(X$TRANSMIT_DtoA1.DGND_OL)     .0022  (X$TRANSMIT_DtoA1.DPWR_OH)    4.9975      

(X$C_CLK_AtoD1.XNORM.THRESHOLD)    1.5000                



 DGTL NODE : STATE  DGTL NODE : STATE  DGTL NODE : STATE  DGTL NODE : STATE


(X_CD4026_2_U1A.D1) : 1               (M_UN0006) : 1     (  N32659) : 1         

(X_CD4026_2_U1A.D2) : 1               (M_UN0003) : 0                            

(X_CD4026_2_U1A.RESET) : 0            (X_CD4026_2_U1A.CLK4) : 1                 

(X_CD4026_1_U1A.D3) : 0               (X_CD4026_2_U1A.Q4) : 0                   

(X_CD4026_2_U1A.CLK1) : 0             (X_CD4026_1_U1A.CLK4) : 1                 

(X_CD4026_1_U1A.D4) : 1               (X_CD4026_1_U1A.Q1BAR) : 1                

(X_CD4026_2_U1A.Q1) : 0               (X_CD4026_1_U1A.CLK1) : 1                 

(X_CD4026_2_U1A.CLK) : 0              (  N32671) : 0     (delay_N00900) : 1     

(X_CD4026_2_U1A.Q2) : 0               (  N32655) : 1     (  N84729) : X         

(delay_N00924) : 1                    (X_CD4026_2_U1A.Q2BAR) : 1                

(X_CD4026_1_U1A.Q3) : 1               (M_UN0010) : 0     (delay_N00896) : 0     

(  N32613) : 0     (TRANSMIT$AtoD) : 0                   (   $D_HI) : 1         

(X_CD4026_1_U1A.Q4) : 0               (C_CLK$AtoD) : 1   (M_UN0007) : 0         

(SOUND$AtoD) : 0   (N29999$AtoD) : 1  (X_CD4026_2_U1A.D3) : 1                   

(M_UN0004) : 1     (X_CD4026_1_U1A.RESETBAR) : 1                                

(X_CD4026_1_U1A.Q4BAR) : 1            (  N32667) : 0     (M_UN0001) : 1         

(ECHO_A$DtoA) : 0  (X_CD4026_2_U1A.CLK2) : 1                                    

(X_CD4026_2_U1A.Q1BAR) : 1            (delay_N00920) : 0                        

(X_CD4026_1_U1A.CLK2) : 1             (ECHO_D$AtoD) : 0                         

(X_CD4026_2_U1A.EN) : 1               (X_CD4026_2_U1A.Q3) : 0                   

(delay_N00892) : 0                    (  N32683) : 0     (M_UN0008) : 1         

(M_UN0011) : 1     (CD4026_1_N004852) : 0                (TRANSMIT$DtoA) : 0    

(delay_N00908) : 1                    (X_CD4026_1_U1A.Q3BAR) : 0                

(C_CLK$AtoD2) : 1  (  N32663) : 0     (delay_N00916) : 1                        

(M_UN0005) : 0     (X_CD4026_2_U1A.Q4BAR) : 1                                   

(X_CD4026_1_U1A.D1) : 1               (X_CD4026_2_U1A.RESETBAR) : 1             

(  N32679) : 0     (X_CD4026_1_U1A.RESET) : 0            (M_UN0002) : X         

(  N32745) : 0     (X_CD4026_2_U1A.CLK3) : 1                                    

(X_CD4026_1_U1A.D2) : 1               (X_CD4026_1_U1A.EN) : 1                   

(X_CD4026_1_U1A.CLK3) : 1             (CD4026_2_N004852) : 0                    

(M_UN0009) : 1     (X_CD4026_1_U1A.Q1) : 0                                      

(X_CD4026_1_U1A.CLK) : 1              (M_UN0012) : 1                            

(X_CD4026_1_U1A.Q2BAR) : 1            (  N32675) : 0     (delay_N00904) : 0     

(X_CD4026_1_U1A.Q2) : 0               (X_CD4026_2_U1A.D4) : 1                   

(delay_N00912) : 0                    (X_CD4026_2_U1A.Q3BAR) : 1                

(delay_N00936) : 1                    


**** Interrupt ****
**** Param: RELTOL = 0.001
**** Param: ABSTOL = 1e-12
**** Param: VNTOL = 1e-06
**** Param: GMIN = 1e-09
**** Param: TSTOP = 0.015
**** Param: TMAX = 1e-06
**** Param: ITL1 = 150
**** Param: ITL2 = 20
**** Param: ITL4 = 100
**** Param: AutoConverge = 0
**** Param: AutoConverge.ITL1 = 1000
**** Param: AutoConverge.ITL2 = 1000
**** Param: AutoConverge.ITL4 = 1000
**** Param: AutoConverge.RELTOL = 0.05
**** Param: AutoConverge.ABSTOL = 0.001
**** Param: AutoConverge.VNTOL = 0.001
**** Param: AutoConverge.PIVTOL = 1e-10
**** Param: ADVCONV = 1
**** Param: Current_Simulation = 3
**** Param: METHOD = 0
**** Param: TRTOL = 7
**** Param: STEPGMIN = 0
**** Param: GMINSTEPS = 0
**** Param: ITL6 = 0
**** Param: NOSTEPDEP = 0
**** Param: PTRANSTEP = 0
**** Param: GMINSRC = 0
**** Param: PSEUDOTRAN = 0
**** Param: NOSTEPSRC = 0

ERROR(ORPSIM-15138): Convergence problem in Transient Analysis at Time =  .012.
         Time step =  704.7E-21, minimum allowable step size =  1.000E-18

  These voltages failed to converge:

    V(X_U2.17)                =    8.887uV  \    7.668uV
    V(X_U2.24)                =   287.34uV  \   283.29uV
    V(X_U9A.xinstlm358.11)    =     15.52V  \  -155.65mV

  These supply currents failed to converge:

    I(X_U3.E_EMIR)            =   -2.945mA  \  -158.45uA
    I(X_U3.E_EVAL)            =  -447.91uA  \   -23.56uA
    I(X_U2.E_EMIR)            =   -33.89mA  \   -1.904mA
    I(X_U2.E_EVAL)            =   -5.161mA  \  -274.96uA
    I(X_U6.E_EMIR)            =   542.26uA  \    20.50uA
    I(X_U6.E_EVAL)            =    15.20uA  \   811.94nA
    I(X_U9A.xinstlm358.EU1)   =   251.13nA  \    53.69nA
    I(X_U9A.xinstlm358.EVM)   =    18.00nA  \  -159.75pA
    I(X_U9A.xinstlm358.EVP)   =   -18.45mA  \    1.078mA
    I(X_U10A.x_lm393.e1)      =   -99.66uA  \   -99.96uA
    I(X_U10B.x_lm393.e1)      =   -99.66uA  \   -99.95uA
    I(X_U5A.xinstlm358.EU1)   =         0A  \    1.953mA
    I(X_U5A.xinstlm358.EVM)   =   -12.04uA  \   -12.02uA
    I(X_U9A.xinstlm358.VFI7)  =  -188.73nA  \  -191.62nA
    I(X_U9A.xinstlm358.VFI6)  =  -185.50nA  \  -188.40nA
    I(X_U10A.x_lm393.v1)      =    99.66uA  \    99.96uA
    I(X_U10B.x_lm393.v1)      =    99.66uA  \    99.95uA
    I(X$CD4000_PWR.VVSS)      =   -4.892uA  \   -4.909uA
    I(X$DIGIFPWR.VDGND)       =    2.681mA  \    28.14uA

  These devices failed to converge:
    X_U9A.xinstlm358.D5 X_U5A.xinstlm358.D5 X$C_CLK_AtoD1.D1 X$C_CLK_AtoD1.D2 
    X_U3.M_U2_U2_M2 X_U3.M_U2_U4_M4 X_U3.M_U2_U5_M2 X_U6.M_U2_U1_M7 
    X_U6.M_U2_U2_M7 X_U10A.x_lm393.q5 



  Last node voltages tried were:

 NODE   VOLTAGE     NODE   VOLTAGE     NODE   VOLTAGE     NODE   VOLTAGE


(  VDD)    4.9965  (  VLP)     .9328  (  VO+)    4.9964  (  VO-) 99.13E-06      

(  VPA)     .4597  (  VPC)     .1019  (C_CLK)    4.9963  (SOUND) 1.106E-06      

(/SOUND)    4.9965 (ECHO_A)     .0895 (ECHO_D)     .1018 (N29217)     .1034     

(N29421)     .8974 (N29551)    3.3310 (N29853)    1.8020 (N29991)    1.6742     

(N29999)    4.9965 (N30031)    3.3310 (N74582)    3.2131 (N74666)    1.7002     

(N74696)    3.3310 (N86762)    9.0000 (N97476)    2.3336 (N97556)     .4276     

(N97588)     .7670 (N97606)    2.4187 (N98046)     .9304 (N98078)    2.9978     

(X_U2.1)    4.9965 (X_U2.2)    1.6655 (X_U2.3) 7680.9000 (X_U2.4)    4.1965     

(X_U2.5)    4.0448 (X_U2.6)-24.34E+03 (X_U2.7)    4.1965 (X_U2.8)    -.6782     

(X_U2.9)    4.9963 (X_U3.1) 1.830E-06 (X_U3.2)    1.6655 (X_U3.3)  -87.0240     

(X_U3.4)    4.1965 (X_U3.5)    -.5325 (X_U3.6)-16.57E+03 (X_U3.7)    4.1965     

(X_U3.8)    -.6682 (X_U3.9)-8.323E-06 (X_U6.1) 1.270E-06 (X_U6.2)    1.6655     

(X_U6.3) -347.0000 (X_U6.4)    4.1965 (X_U6.5)    -.5682 (X_U6.6)-16.31E+03     

(X_U6.7)    4.1965 (X_U6.8)    -.6678 (X_U6.9)-5.417E-06 ($G_DGND)    0.0000    

($G_DPWR)    5.0000                   (N109008)    0.0000                       

(N293890)    4.9964                   (REF_2V5)    2.4987                       

(X_U2.10)-54.52E-06                   (X_U2.11)    4.9964                       

(X_U2.12)-192.0E-06                   (X_U2.13)    4.9965                       

(X_U2.14)    4.9964                   (X_U2.15)    2.4981                       

(X_U2.16)     .2011                   (X_U2.17) 8.887E-06                       

(X_U2.18)    4.9964                   (X_U2.19)    4.7954                       

(X_U2.20)    4.9962                   (X_U2.21)     .1218                       

(X_U2.22)    2.4973                   (X_U2.23)    4.8448                       

(X_U2.24) 287.3E-06                   (X_U2.25)    4.9965                       

(X_U3.10)    4.9965                   (X_U3.11)     .2017                       

(X_U3.12)    4.9962                   (X_U3.13) 1.830E-06                       

(X_U3.14)-57.15E-06                   (X_U3.15)    4.9964                       

(X_U3.16)    4.9961                   (X_U3.17) 357.3E-06                       

(X_U3.18)-60.96E-06                   (X_U3.19)-16.98E-06                       

(X_U3.20)    4.9964                   (X_U3.21)     .1318                       

(X_U3.22)    4.5377                   (X_U3.23)     .2675                       

(X_U3.24)    4.7376                   (X_U3.25)-8.896E-06                       

(X_U6.10)    4.9965                   (X_U6.11)     .2010                       

(X_U6.12)    4.9965                   (X_U6.13) 1.270E-06                       

(X_U6.14) 671.1E-09                   (X_U6.15)    4.9965                       

(X_U6.16)    4.9965                   (X_U6.17)-17.23E-06                       

(X_U6.18)-1.163E-06                   (X_U6.19) 212.5E-09                       

(X_U6.20)    4.9958                   (X_U6.21)     .1322                       

(X_U6.22)    4.7354                   (X_U6.23)     .2318                       

(X_U6.24)    4.9402                   (X_U6.25)-2.861E-06                       

(TRANSMIT)     .0022                  (X_U2.VDD)    4.9965                      

(X_U3.VDD)    4.9965                  (X_U6.VDD)    4.9965                      

(X_U8.x1.4)    6.3553                 (X_U8.x1.5)    6.3377                     

(X_U8.x1.6)    5.6860                 (X_U8.x1.7)    5.0045                     

(X_U8.x1.8)    4.9967                 (X_U8.x1.9)    4.9967                     

(X_U8.x1.55)    5.0045                (X_U8.x1.56)    5.0046                    

(X_U8.x1.100)    7.4000               (X_U8.x1.101)    3.7004                   

(X_U8.x1.102)    9.0000               (X_U8.x1.105)    6.3553                   

(X_U8.x1.106)    6.3553               (X_U8.x1.107)    1.0000                   

(X_U8.x1.108)    8.0000               (X_U8.x1.200) 1665.0000                   

($G_CD4000_VDD)    5.0000             ($G_CD4000_VSS)    0.0000                 

(X_U10A.x_lm393.7)    1.8385          (X_U10A.x_lm393.8)     .4004              

(X_U10A.x_lm393.9)     .7627          (X_U10B.x_lm393.7)    2.1779              

(X_U10B.x_lm393.8)     .4050          (X_U10B.x_lm393.9)     .7626              

(X_U10A.x_lm393.10)     .7627         (X_U10A.x_lm393.11)     .7627             

(X_U10A.x_lm393.21)    1.1776         (X_U10A.x_lm393.22)    3.2487             

(X_U10B.x_lm393.10)     .7626         (X_U10B.x_lm393.11)     .7626             

(X_U10B.x_lm393.21)    1.5170         (X_U10B.x_lm393.22)    3.7478             

(X$C_CLK_AtoD1.NORM)    1.2482        (X_U5A.xinstlm358.1)     .0790            

(X_U5A.xinstlm358.2)    2.9452        (X_U5A.xinstlm358.4) 446.4E-06            

(X_U5A.xinstlm358.5)    2.9727        (X_U5A.xinstlm358.6)    2.4986            

(X_U5A.xinstlm358.7) 1000.0000        (X_U5A.xinstlm358.9)    3.0999            

(X_U9A.xinstlm358.1)     .0378        (X_U9A.xinstlm358.2)    1.5254            

(X_U9A.xinstlm358.4)     .0422        (X_U9A.xinstlm358.5)    1.5238            

(X_U9A.xinstlm358.6)     .9304        (X_U9A.xinstlm358.7) 1000.0000            

(X_U9A.xinstlm358.9)    3.0999        (X$N29999_AtoD1.NORM)     .9993           

(X_U5A.xinstlm358.10)     .4271       (X_U5A.xinstlm358.11)    -.5408           

(X_U5A.xinstlm358.12)    0.0000       (X_U5A.xinstlm358.14)    2.4050           

(X_U5A.xinstlm358.15)    2.4050       (X_U5A.xinstlm358.16)     .5408           

(X_U5A.xinstlm358.17)    2.9729       (X_U5A.xinstlm358.18)    2.4054           

(X_U5A.xinstlm358.20) 40.03E-06       (X_U5A.xinstlm358.21)    -.5607           

(X_U5A.xinstlm358.22)     .0271       (X_U5A.xinstlm358.24) 1000.8000           

(X_U5A.xinstlm358.25)     .4271       (X_U5A.xinstlm358.26)    1.1550           

(X_U5A.xinstlm358.27)    -.3008       (X_U9A.xinstlm358.10)     .9637           

(X_U9A.xinstlm358.11)   15.5160       (X_U9A.xinstlm358.12)    0.0000           

(X_U9A.xinstlm358.14)    2.3587       (X_U9A.xinstlm358.15)    2.3587           

(X_U9A.xinstlm358.16)    -.4328       (X_U9A.xinstlm358.17)    1.5386           

(X_U9A.xinstlm358.18)    2.3589       (X_U9A.xinstlm358.20) 40.03E-06           

(X_U9A.xinstlm358.21)    -.5058       (X_U9A.xinstlm358.22)     .0889           

(X_U9A.xinstlm358.24) 1000.8000       (X_U9A.xinstlm358.25)     .9637           

(X_U9A.xinstlm358.26)    1.6915       (X_U9A.xinstlm358.27)     .2358           

(X$TRANSMIT_DtoA1.DGND_OL)     .0022  (X$TRANSMIT_DtoA1.DPWR_OH)    4.9975      

(X$C_CLK_AtoD1.XNORM.THRESHOLD)    1.5000                



 DGTL NODE : STATE  DGTL NODE : STATE  DGTL NODE : STATE  DGTL NODE : STATE


(X_CD4026_2_U1A.D1) : 1               (M_UN0006) : 1     (  N32659) : 1         

(X_CD4026_2_U1A.D2) : 1               (M_UN0003) : 0                            

(X_CD4026_2_U1A.RESET) : 0            (X_CD4026_2_U1A.CLK4) : 1                 

(X_CD4026_1_U1A.D3) : 0               (X_CD4026_2_U1A.Q4) : 0                   

(X_CD4026_2_U1A.CLK1) : 0             (X_CD4026_1_U1A.CLK4) : 1                 

(X_CD4026_1_U1A.D4) : 1               (X_CD4026_1_U1A.Q1BAR) : 1                

(X_CD4026_2_U1A.Q1) : 0               (X_CD4026_1_U1A.CLK1) : 1                 

(X_CD4026_2_U1A.CLK) : 0              (  N32671) : 0     (delay_N00900) : 1     

(X_CD4026_2_U1A.Q2) : 0               (  N32655) : 1     (  N84729) : X         

(delay_N00924) : 1                    (X_CD4026_2_U1A.Q2BAR) : 1                

(X_CD4026_1_U1A.Q3) : 1               (M_UN0010) : 0     (delay_N00896) : 0     

(  N32613) : 0     (TRANSMIT$AtoD) : 0                   (   $D_HI) : 1         

(X_CD4026_1_U1A.Q4) : 0               (C_CLK$AtoD) : 1   (M_UN0007) : 0         

(SOUND$AtoD) : 0   (N29999$AtoD) : 1  (X_CD4026_2_U1A.D3) : 1                   

(M_UN0004) : 1     (X_CD4026_1_U1A.RESETBAR) : 1                                

(X_CD4026_1_U1A.Q4BAR) : 1            (  N32667) : 0     (M_UN0001) : 1         

(ECHO_A$DtoA) : 0  (X_CD4026_2_U1A.CLK2) : 1                                    

(X_CD4026_2_U1A.Q1BAR) : 1            (delay_N00920) : 0                        

(X_CD4026_1_U1A.CLK2) : 1             (ECHO_D$AtoD) : 0                         

(X_CD4026_2_U1A.EN) : 1               (X_CD4026_2_U1A.Q3) : 0                   

(delay_N00892) : 0                    (  N32683) : 0     (M_UN0008) : 1         

(M_UN0011) : 1     (CD4026_1_N004852) : 0                (TRANSMIT$DtoA) : 0    

(delay_N00908) : 1                    (X_CD4026_1_U1A.Q3BAR) : 0                

(C_CLK$AtoD2) : 1  (  N32663) : 0     (delay_N00916) : 1                        

(M_UN0005) : 0     (X_CD4026_2_U1A.Q4BAR) : 1                                   

(X_CD4026_1_U1A.D1) : 1               (X_CD4026_2_U1A.RESETBAR) : 1             

(  N32679) : 0     (X_CD4026_1_U1A.RESET) : 0            (M_UN0002) : X         

(  N32745) : 0     (X_CD4026_2_U1A.CLK3) : 1                                    

(X_CD4026_1_U1A.D2) : 1               (X_CD4026_1_U1A.EN) : 1                   

(X_CD4026_1_U1A.CLK3) : 1             (CD4026_2_N004852) : 0                    

(M_UN0009) : 1     (X_CD4026_1_U1A.Q1) : 0                                      

(X_CD4026_1_U1A.CLK) : 1              (M_UN0012) : 1                            

(X_CD4026_1_U1A.Q2BAR) : 1            (  N32675) : 0     (delay_N00904) : 0     

(X_CD4026_1_U1A.Q2) : 0               (X_CD4026_2_U1A.D4) : 1                   

(delay_N00912) : 0                    (X_CD4026_2_U1A.Q3BAR) : 1                

(delay_N00936) : 1                    


**** Interrupt ****
**** Param: RELTOL = 0.001
**** Param: ABSTOL = 1e-12
**** Param: VNTOL = 1e-06
**** Param: GMIN = 1e-09
**** Param: TSTOP = 0.015
**** Param: TMAX = 1e-06
**** Param: ITL1 = 150
**** Param: ITL2 = 20
**** Param: ITL4 = 100
**** Param: AutoConverge = 0
**** Param: AutoConverge.ITL1 = 1000
**** Param: AutoConverge.ITL2 = 1000
**** Param: AutoConverge.ITL4 = 1000
**** Param: AutoConverge.RELTOL = 0.05
**** Param: AutoConverge.ABSTOL = 0.001
**** Param: AutoConverge.VNTOL = 0.001
**** Param: AutoConverge.PIVTOL = 1e-10
**** Param: ADVCONV = 1
**** Param: Current_Simulation = 3
**** Param: METHOD = 0
**** Param: TRTOL = 7
**** Param: STEPGMIN = 0
**** Param: GMINSTEPS = 0
**** Param: ITL6 = 0
**** Param: NOSTEPDEP = 0
**** Param: PTRANSTEP = 0
**** Param: GMINSRC = 0
**** Param: PSEUDOTRAN = 0
**** Param: NOSTEPSRC = 0

ERROR(ORPSIM-15138): Convergence problem in Transient Analysis at Time =  .012.
         Time step =  650.5E-21, minimum allowable step size =  1.000E-18

  These voltages failed to converge:

    V(X_U2.17)                =    15.59uV  \    13.94uV
    V(X_U2.24)                =   309.43uV  \   303.80uV
    V(X_U9A.xinstlm358.16)    =  -432.56mV  \  -433.12mV
    V(X_U9A.xinstlm358.11)    =     18.00V  \     3.100V

  These supply currents failed to converge:

    I(X_U3.E_EMIR)            =   -4.029mA  \  -863.75uA
    I(X_U3.E_EVAL)            =  -822.96uA  \  -174.26uA
    I(X_U2.E_EMIR)            =   -47.45mA  \   -10.75mA
    I(X_U2.E_EVAL)            =   -9.480mA  \   -2.010mA
    I(X_U6.E_EMIR)            =   764.37uA  \   163.83uA
    I(X_U6.E_EVAL)            =    27.92uA  \    5.922uA
    I(X_U9A.xinstlm358.EU1)   =  -225.71nA  \    42.51nA
    I(X_U9A.xinstlm358.EVM)   =    18.00nA  \    3.100nA
    I(X_U9A.xinstlm358.EVP)   =   -18.45mA  \   -2.828mA
    I(X_U10A.x_lm393.e1)      =   -99.66uA  \   -99.96uA
    I(X_U10B.x_lm393.e1)      =  -100.14uA  \   -99.84uA
    I(X_U9A.xinstlm358.VFI7)  =  -186.95nA  \  -190.99nA
    I(X_U9A.xinstlm358.VFI6)  =  -183.73nA  \  -187.77nA
    I(X_U10A.x_lm393.v1)      =    99.66uA  \    99.96uA
    I(X_U10B.x_lm393.v1)      =   100.14uA  \    99.84uA
    I(X$CD4000_PWR.VVSS)      =   -4.845uA  \   -4.896uA
    I(X$DIGIFPWR.VDGND)       =    6.892mA  \    1.368mA

  These devices failed to converge:
    X_U9A.xinstlm358.D5 X$C_CLK_AtoD1.D1 X$C_CLK_AtoD1.D2 X_U6.M_U2_U1_M7 
    X_U10B.x_lm393.q5 



  Last node voltages tried were:

 NODE   VOLTAGE     NODE   VOLTAGE     NODE   VOLTAGE     NODE   VOLTAGE


(  VDD)    4.9965  (  VLP)     .9328  (  VO+)    4.9964  (  VO-) 99.13E-06      

(  VPA)     .4597  (  VPC)     .1019  (C_CLK)    4.9963  (SOUND) 1.104E-06      

(/SOUND)    4.9965 (ECHO_A)     .0895 (ECHO_D)     .1018 (N29217)     .1034     

(N29421)     .8974 (N29551)    3.3310 (N29853)    1.8020 (N29991)    1.6742     

(N29999)    4.9965 (N30031)    3.3310 (N74582)    3.2131 (N74666)    1.7002     

(N74696)    3.3310 (N86762)    9.0000 (N97476)    2.3336 (N97556)     .4276     

(N97588)     .7670 (N97606)    2.4187 (N98046)     .9304 (N98078)    2.9978     

(X_U2.1)    4.9965 (X_U2.2)    1.6655 (X_U2.3) 7680.9000 (X_U2.4)    4.1965     

(X_U2.5)    4.0449 (X_U2.6)-24.34E+03 (X_U2.7)    4.1965 (X_U2.8)    -.6782     

(X_U2.9)    4.9963 (X_U3.1) 1.830E-06 (X_U3.2)    1.6655 (X_U3.3)  -87.0240     

(X_U3.4)    4.1965 (X_U3.5)    -.5325 (X_U3.6)-16.57E+03 (X_U3.7)    4.1965     

(X_U3.8)    -.6682 (X_U3.9)-8.475E-06 (X_U6.1) 1.270E-06 (X_U6.2)    1.6655     

(X_U6.3) -347.0000 (X_U6.4)    4.1965 (X_U6.5)    -.5682 (X_U6.6)-16.31E+03     

(X_U6.7)    4.1965 (X_U6.8)    -.6678 (X_U6.9)-5.306E-06 ($G_DGND)    0.0000    

($G_DPWR)    5.0000                   (N109008)    0.0000                       

(N293890)    4.9964                   (REF_2V5)    2.4987                       

(X_U2.10)-55.20E-06                   (X_U2.11)    4.9964                       

(X_U2.12)-193.5E-06                   (X_U2.13)    4.9965                       

(X_U2.14)    4.9964                   (X_U2.15)    2.4981                       

(X_U2.16)     .2011                   (X_U2.17) 15.59E-06                       

(X_U2.18)    4.9964                   (X_U2.19)    4.7954                       

(X_U2.20)    4.9962                   (X_U2.21)     .1218                       

(X_U2.22)    2.4973                   (X_U2.23)    4.8449                       

(X_U2.24) 309.4E-06                   (X_U2.25)    4.9965                       

(X_U3.10)    4.9965                   (X_U3.11)     .2017                       

(X_U3.12)    4.9962                   (X_U3.13) 1.830E-06                       

(X_U3.14)-57.24E-06                   (X_U3.15)    4.9964                       

(X_U3.16)    4.9961                   (X_U3.17) 357.2E-06                       

(X_U3.18)-62.14E-06                   (X_U3.19)-16.75E-06                       

(X_U3.20)    4.9964                   (X_U3.21)     .1318                       

(X_U3.22)    4.5377                   (X_U3.23)     .2675                       

(X_U3.24)    4.7376                   (X_U3.25)-8.973E-06                       

(X_U6.10)    4.9965                   (X_U6.11)     .2010                       

(X_U6.12)    4.9965                   (X_U6.13) 1.270E-06                       

(X_U6.14) 799.2E-09                   (X_U6.15)    4.9965                       

(X_U6.16)    4.9965                   (X_U6.17)-17.09E-06                       

(X_U6.18)-1.131E-06                   (X_U6.19) 250.7E-09                       

(X_U6.20)    4.9958                   (X_U6.21)     .1322                       

(X_U6.22)    4.7354                   (X_U6.23)     .2318                       

(X_U6.24)    4.9402                   (X_U6.25)-2.420E-06                       

(TRANSMIT)     .0022                  (X_U2.VDD)    4.9965                      

(X_U3.VDD)    4.9965                  (X_U6.VDD)    4.9965                      

(X_U8.x1.4)    6.3553                 (X_U8.x1.5)    6.3377                     

(X_U8.x1.6)    5.6860                 (X_U8.x1.7)    5.0045                     

(X_U8.x1.8)    4.9967                 (X_U8.x1.9)    4.9967                     

(X_U8.x1.55)    5.0045                (X_U8.x1.56)    5.0046                    

(X_U8.x1.100)    7.4000               (X_U8.x1.101)    3.7004                   

(X_U8.x1.102)    9.0000               (X_U8.x1.105)    6.3553                   

(X_U8.x1.106)    6.3553               (X_U8.x1.107)    1.0000                   

(X_U8.x1.108)    8.0000               (X_U8.x1.200) 1665.0000                   

($G_CD4000_VDD)    5.0000             ($G_CD4000_VSS)    0.0000                 

(X_U10A.x_lm393.7)    1.8385          (X_U10A.x_lm393.8)     .4004              

(X_U10A.x_lm393.9)     .7627          (X_U10B.x_lm393.7)    2.1779              

(X_U10B.x_lm393.8)     .4050          (X_U10B.x_lm393.9)     .7626              

(X_U10A.x_lm393.10)     .7627         (X_U10A.x_lm393.11)     .7627             

(X_U10A.x_lm393.21)    1.1776         (X_U10A.x_lm393.22)    3.2487             

(X_U10B.x_lm393.10)     .7626         (X_U10B.x_lm393.11)     .7626             

(X_U10B.x_lm393.21)    1.5170         (X_U10B.x_lm393.22)    3.7478             

(X$C_CLK_AtoD1.NORM)    1.2482        (X_U5A.xinstlm358.1)     .0790            

(X_U5A.xinstlm358.2)    2.9452        (X_U5A.xinstlm358.4) 446.4E-06            

(X_U5A.xinstlm358.5)    2.9727        (X_U5A.xinstlm358.6)    2.4986            

(X_U5A.xinstlm358.7) 1000.0000        (X_U5A.xinstlm358.9)    3.0999            

(X_U9A.xinstlm358.1)     .0378        (X_U9A.xinstlm358.2)    1.5254            

(X_U9A.xinstlm358.4)     .0422        (X_U9A.xinstlm358.5)    1.5238            

(X_U9A.xinstlm358.6)     .9304        (X_U9A.xinstlm358.7) 1000.0000            

(X_U9A.xinstlm358.9)    3.0999        (X$N29999_AtoD1.NORM)     .9993           

(X_U5A.xinstlm358.10)     .4271       (X_U5A.xinstlm358.11)    -.5408           

(X_U5A.xinstlm358.12)    0.0000       (X_U5A.xinstlm358.14)    2.4050           

[...]

(X_U3.12)    4.9962                   (X_U3.13) 1.830E-06                       

(X_U3.14)-57.28E-06                   (X_U3.15)    4.9964                       

(X_U3.16)    4.9961                   (X_U3.17) 357.2E-06                       

(X_U3.18)-62.83E-06                   (X_U3.19)-16.70E-06                       

(X_U3.20)    4.9964                   (X_U3.21)     .1318                       

(X_U3.22)    4.5377                   (X_U3.23)     .2675                       

(X_U3.24)    4.7376                   (X_U3.25)-8.974E-06                       

(X_U6.10)    4.9965                   (X_U6.11)     .2010                       

(X_U6.12)    4.9965                   (X_U6.13) 1.270E-06                       

(X_U6.14) 837.1E-09                   (X_U6.15)    4.9965                       

(X_U6.16)    4.9965                   (X_U6.17)-17.05E-06                       

(X_U6.18)-1.116E-06                   (X_U6.19) 260.2E-09                       

(X_U6.20)    4.9958                   (X_U6.21)     .1322                       

(X_U6.22)    4.7354                   (X_U6.23)     .2318                       

(X_U6.24)    4.9402                   (X_U6.25)-2.329E-06                       

(TRANSMIT)     .0022                  (X_U2.VDD)    4.9965                      

(X_U3.VDD)    4.9965                  (X_U6.VDD)    4.9965                      

(X_U8.x1.4)    6.3516                 (X_U8.x1.5)    6.3347                     

(X_U8.x1.6)    5.6841                 (X_U8.x1.7)    5.0041                     

(X_U8.x1.8)    4.9967                 (X_U8.x1.9)    4.9967                     

(X_U8.x1.55)    5.0056                (X_U8.x1.56)    5.0452                    

(X_U8.x1.100)    7.4000               (X_U8.x1.101)    3.7004                   

(X_U8.x1.102)    9.0000               (X_U8.x1.105)    6.3553                   

(X_U8.x1.106)    6.3516               (X_U8.x1.107)    1.0000                   

(X_U8.x1.108)    8.0000               (X_U8.x1.200) 1665.0000                   

($G_CD4000_VDD)    5.0000             ($G_CD4000_VSS)    0.0000                 

(X_U10A.x_lm393.7)    1.8402          (X_U10A.x_lm393.8)     .7616              

(X_U10A.x_lm393.9)     .7627          (X_U10B.x_lm393.7)    2.2050              

(X_U10B.x_lm393.8)     .7616          (X_U10B.x_lm393.9)     .7626              

(X_U10A.x_lm393.10)     .7627         (X_U10A.x_lm393.11)     .7627             

(X_U10A.x_lm393.21)    1.1799         (X_U10A.x_lm393.22)    3.2487             

(X_U10B.x_lm393.10)     .7626         (X_U10B.x_lm393.11)     .7626             

(X_U10B.x_lm393.21)    1.5449         (X_U10B.x_lm393.22)    3.7125             

(X$C_CLK_AtoD1.NORM)    1.2482        (X_U5A.xinstlm358.1)     .0916            

(X_U5A.xinstlm358.2)    2.9309        (X_U5A.xinstlm358.4)     .0130            

(X_U5A.xinstlm358.5)    2.9477        (X_U5A.xinstlm358.6)    2.4986            

(X_U5A.xinstlm358.7) 1000.0000        (X_U5A.xinstlm358.9)    3.0999            

(X_U9A.xinstlm358.1)     .0427        (X_U9A.xinstlm358.2)    1.5415            

(X_U9A.xinstlm358.4)     .0470        (X_U9A.xinstlm358.5)    1.5286            

(X_U9A.xinstlm358.6)     .9304        (X_U9A.xinstlm358.7) 1000.0000            

(X_U9A.xinstlm358.9)    3.0999        (X$N29999_AtoD1.NORM)     .9993           

(X_U5A.xinstlm358.10)     .4273       (X_U5A.xinstlm358.11)    -.5406           

(X_U5A.xinstlm358.12)    0.0000       (X_U5A.xinstlm358.14)    2.4052           

(X_U5A.xinstlm358.15)    2.4052       (X_U5A.xinstlm358.16)     .5449           

(X_U5A.xinstlm358.17)    2.9532       (X_U5A.xinstlm358.18)    2.4056           

(X_U5A.xinstlm358.20) 40.03E-06       (X_U5A.xinstlm358.21)    -.5598           

(X_U5A.xinstlm358.22)     .0279       (X_U5A.xinstlm358.24) 1000.8000           

(X_U5A.xinstlm358.25)     .4273       (X_U5A.xinstlm358.26)    1.1547           

(X_U5A.xinstlm358.27)    -.3001       (X_U9A.xinstlm358.10)    1.0069           

(X_U9A.xinstlm358.11)     .0414       (X_U9A.xinstlm358.12)    0.0000           

(X_U9A.xinstlm358.14)    2.4019       (X_U9A.xinstlm358.15)    2.4019           

(X_U9A.xinstlm358.16)     .4741       (X_U9A.xinstlm358.17)    1.5491           

(X_U9A.xinstlm358.18)    2.4021       (X_U9A.xinstlm358.20) 40.03E-06           

(X_U9A.xinstlm358.21)    -.4853       (X_U9A.xinstlm358.22)     .1095           

(X_U9A.xinstlm358.24) 1000.8000       (X_U9A.xinstlm358.25)    1.0069           

(X_U9A.xinstlm358.26)    1.7342       (X_U9A.xinstlm358.27)     .2795           

(X$TRANSMIT_DtoA1.DGND_OL)     .0022  (X$TRANSMIT_DtoA1.DPWR_OH)    4.9975      

(X$C_CLK_AtoD1.XNORM.THRESHOLD)    1.5000                



 DGTL NODE : STATE  DGTL NODE : STATE  DGTL NODE : STATE  DGTL NODE : STATE


(X_CD4026_2_U1A.D1) : 1               (M_UN0006) : 1     (  N32659) : 1         

(X_CD4026_2_U1A.D2) : 1               (M_UN0003) : 0                            

(X_CD4026_2_U1A.RESET) : 0            (X_CD4026_2_U1A.CLK4) : 1                 

(X_CD4026_1_U1A.D3) : 0               (X_CD4026_2_U1A.Q4) : 0                   

(X_CD4026_2_U1A.CLK1) : 0             (X_CD4026_1_U1A.CLK4) : 1                 

(X_CD4026_1_U1A.D4) : 1               (X_CD4026_1_U1A.Q1BAR) : 1                

(X_CD4026_2_U1A.Q1) : 0               (X_CD4026_1_U1A.CLK1) : 1                 

(X_CD4026_2_U1A.CLK) : 0              (  N32671) : 0     (delay_N00900) : 1     

(X_CD4026_2_U1A.Q2) : 0               (  N32655) : 1     (  N84729) : X         

(delay_N00924) : 1                    (X_CD4026_2_U1A.Q2BAR) : 1                

(X_CD4026_1_U1A.Q3) : 1               (M_UN0010) : 0     (delay_N00896) : 0     

(  N32613) : 0     (TRANSMIT$AtoD) : 0                   (   $D_HI) : 1         

(X_CD4026_1_U1A.Q4) : 0               (C_CLK$AtoD) : 1   (M_UN0007) : 0         

(SOUND$AtoD) : 0   (N29999$AtoD) : 1  (X_CD4026_2_U1A.D3) : 1                   

(M_UN0004) : 1     (X_CD4026_1_U1A.RESETBAR) : 1                                

(X_CD4026_1_U1A.Q4BAR) : 1            (  N32667) : 0     (M_UN0001) : 1         

(ECHO_A$DtoA) : 0  (X_CD4026_2_U1A.CLK2) : 1                                    

(X_CD4026_2_U1A.Q1BAR) : 1            (delay_N00920) : 0                        

(X_CD4026_1_U1A.CLK2) : 1             (ECHO_D$AtoD) : 0                         

(X_CD4026_2_U1A.EN) : 1               (X_CD4026_2_U1A.Q3) : 0                   

(delay_N00892) : 0                    (  N32683) : 0     (M_UN0008) : 1         

(M_UN0011) : 1     (CD4026_1_N004852) : 0                (TRANSMIT$DtoA) : 0    

(delay_N00908) : 1                    (X_CD4026_1_U1A.Q3BAR) : 0                

(C_CLK$AtoD2) : 1  (  N32663) : 0     (delay_N00916) : 1                        

(M_UN0005) : 0     (X_CD4026_2_U1A.Q4BAR) : 1                                   

(X_CD4026_1_U1A.D1) : 1               (X_CD4026_2_U1A.RESETBAR) : 1             

(  N32679) : 0     (X_CD4026_1_U1A.RESET) : 0            (M_UN0002) : X         

(  N32745) : 0     (X_CD4026_2_U1A.CLK3) : 1                                    

(X_CD4026_1_U1A.D2) : 1               (X_CD4026_1_U1A.EN) : 1                   

(X_CD4026_1_U1A.CLK3) : 1             (CD4026_2_N004852) : 0                    

(M_UN0009) : 1     (X_CD4026_1_U1A.Q1) : 0                                      

(X_CD4026_1_U1A.CLK) : 1              (M_UN0012) : 1                            

(X_CD4026_1_U1A.Q2BAR) : 1            (  N32675) : 0     (delay_N00904) : 0     

(X_CD4026_1_U1A.Q2) : 0               (X_CD4026_2_U1A.D4) : 1                   

(delay_N00912) : 0                    (X_CD4026_2_U1A.Q3BAR) : 1                

(delay_N00936) : 1                    


**** Interrupt ****
**** Param: RELTOL = 0.001
**** Param: ABSTOL = 1e-09
**** Param: VNTOL = 0.001
**** Param: GMIN = 1e-06
**** Param: TSTOP = 0.015
**** Param: TMAX = 10e-06
**** Param: ITL1 = 150
**** Param: ITL2 = 20
**** Param: ITL4 = 100
**** Param: AutoConverge = 0
**** Param: AutoConverge.ITL1 = 1000
**** Param: AutoConverge.ITL2 = 1000
**** Param: AutoConverge.ITL4 = 1000
**** Param: AutoConverge.RELTOL = 0.05
**** Param: AutoConverge.ABSTOL = 0.001
**** Param: AutoConverge.VNTOL = 0.001
**** Param: AutoConverge.PIVTOL = 1e-10
**** Param: ADVCONV = 1
**** Param: Current_Simulation = 3
**** Param: METHOD = 0
**** Param: TRTOL = 7
**** Param: STEPGMIN = 0
**** Param: GMINSTEPS = 0
**** Param: ITL6 = 0
**** Param: NOSTEPDEP = 0
**** Param: PTRANSTEP = 0
**** Param: GMINSRC = 0
**** Param: PSEUDOTRAN = 0
**** Param: NOSTEPSRC = 0

ERROR(ORPSIM-15138): Convergence problem in Transient Analysis at Time =  .012.
         Time step =  650.5E-21, minimum allowable step size =  1.000E-18

  These voltages failed to converge:

    V(X_U9A.xinstlm358.11)    =    41.42mV  \    45.14mV

  These supply currents failed to converge:

    I(X_U3.E_EMIR)            =  -796.79uA  \   -3.231mA
    I(X_U3.E_EVAL)            =  -176.05uA  \  -700.00uA
    I(X_U2.E_EMIR)            =   -7.837mA  \   -37.47mA
    I(X_U2.E_EVAL)            =   -2.010mA  \   -8.043mA
    I(X_U6.E_EMIR)            =   117.39uA  \   587.32uA
    I(X_U6.E_EVAL)            =    2.711uA  \    20.48uA
    I(X_U9A.xinstlm358.EU1)   =  -826.84nA  \  -707.63nA
    I(X_U9A.xinstlm358.EVM)   =    41.42nA  \    45.14nA
    I(X_U9A.xinstlm358.EVP)   =    -9.75mA  \   -23.84mA
    I(X_U9A.xinstlm358.VFI7)  =    1.860uA  \    1.874uA
    I(X$CD4000_PWR.VVSS)      =   -4.899uA  \   -4.858uA
    I(X$DIGIFPWR.VDGND)       =    1.046mA  \    5.345mA



  Last node voltages tried were:

 NODE   VOLTAGE     NODE   VOLTAGE     NODE   VOLTAGE     NODE   VOLTAGE


(  VDD)    4.9965  (  VLP)     .9754  (  VO+)    4.9964  (  VO-) 99.13E-06      

(  VPA)     .4664  (  VPC)     .1020  (C_CLK)    4.9963  (SOUND) 1.104E-06      

(/SOUND)    4.9965 (ECHO_A)     .0895 (ECHO_D)     .1020 (N29217)     .1034     

(N29421)     .8974 (N29551)    3.3310 (N29853)    1.8020 (N29991)    1.6742     

(N29999)    4.9965 (N30031)    3.3310 (N74582)    3.2131 (N74666)    1.7002     

(N74696)    3.3310 (N86762)    9.0000 (N97476)    2.3317 (N97556)     .4299     

(N97588)     .7949 (N97606)    2.4187 (N98046)     .9304 (N98078)    2.9625     

(X_U2.1)    4.9965 (X_U2.2)    1.6655 (X_U2.3) 7680.9000 (X_U2.4)    4.1965     

(X_U2.5)    4.0449 (X_U2.6)-24.34E+03 (X_U2.7)    4.1965 (X_U2.8)    -.6782     

(X_U2.9)    4.9963 (X_U3.1) 1.830E-06 (X_U3.2)    1.6655 (X_U3.3)  -87.0240     

(X_U3.4)    4.1965 (X_U3.5)    -.5325 (X_U3.6)-16.57E+03 (X_U3.7)    4.1965     

(X_U3.8)    -.6682 (X_U3.9)-8.516E-06 (X_U6.1) 1.270E-06 (X_U6.2)    1.6655     

(X_U6.3) -347.0000 (X_U6.4)    4.1965 (X_U6.5)    -.5682 (X_U6.6)-16.31E+03     

(X_U6.7)    4.1965 (X_U6.8)    -.6678 (X_U6.9)-5.270E-06 ($G_DGND)    0.0000    

($G_DPWR)    5.0000                   (N109008)    0.0000                       

(N293890)    4.9964                   (REF_2V5)    2.4987                       

(X_U2.10)-55.36E-06                   (X_U2.11)    4.9965                       

(X_U2.12)-194.0E-06                   (X_U2.13)    4.9965                       

(X_U2.14)    4.9964                   (X_U2.15)    2.4981                       

(X_U2.16)     .2011                   (X_U2.17) 18.24E-06                       

(X_U2.18)    4.9964                   (X_U2.19)    4.7954                       

(X_U2.20)    4.9962                   (X_U2.21)     .1218                       

(X_U2.22)    2.4973                   (X_U2.23)    4.8449                       

(X_U2.24) 315.9E-06                   (X_U2.25)    4.9965                       

(X_U3.10)    4.9965                   (X_U3.11)     .2017                       

(X_U3.12)    4.9962                   (X_U3.13) 1.830E-06                       

(X_U3.14)-57.28E-06                   (X_U3.15)    4.9964                       

(X_U3.16)    4.9961                   (X_U3.17) 357.2E-06                       

(X_U3.18)-62.83E-06                   (X_U3.19)-16.70E-06                       

(X_U3.20)    4.9964                   (X_U3.21)     .1318                       

(X_U3.22)    4.5377                   (X_U3.23)     .2675                       

(X_U3.24)    4.7376                   (X_U3.25)-8.974E-06                       

(X_U6.10)    4.9965                   (X_U6.11)     .2010                       

(X_U6.12)    4.9965                   (X_U6.13) 1.270E-06                       

(X_U6.14) 837.1E-09                   (X_U6.15)    4.9965                       

(X_U6.16)    4.9965                   (X_U6.17)-17.05E-06                       

(X_U6.18)-1.116E-06                   (X_U6.19) 260.2E-09                       

(X_U6.20)    4.9958                   (X_U6.21)     .1322                       

(X_U6.22)    4.7354                   (X_U6.23)     .2318                       

(X_U6.24)    4.9402                   (X_U6.25)-2.329E-06                       

(TRANSMIT)     .0022                  (X_U2.VDD)    4.9965                      

(X_U3.VDD)    4.9965                  (X_U6.VDD)    4.9965                      

(X_U8.x1.4)    6.3516                 (X_U8.x1.5)    6.3347                     

(X_U8.x1.6)    5.6841                 (X_U8.x1.7)    5.0041                     

(X_U8.x1.8)    4.9967                 (X_U8.x1.9)    4.9967                     

(X_U8.x1.55)    5.0056                (X_U8.x1.56)    5.0452                    

(X_U8.x1.100)    7.4000               (X_U8.x1.101)    3.7004                   

(X_U8.x1.102)    9.0000               (X_U8.x1.105)    6.3553                   

(X_U8.x1.106)    6.3516               (X_U8.x1.107)    1.0000                   

(X_U8.x1.108)    8.0000               (X_U8.x1.200) 1665.0000                   

($G_CD4000_VDD)    5.0000             ($G_CD4000_VSS)    0.0000                 

(X_U10A.x_lm393.7)    1.8402          (X_U10A.x_lm393.8)     .7616              

(X_U10A.x_lm393.9)     .7627          (X_U10B.x_lm393.7)    2.2050              

(X_U10B.x_lm393.8)     .7616          (X_U10B.x_lm393.9)     .7626              

(X_U10A.x_lm393.10)     .7627         (X_U10A.x_lm393.11)     .7627             

(X_U10A.x_lm393.21)    1.1799         (X_U10A.x_lm393.22)    3.2487             

(X_U10B.x_lm393.10)     .7626         (X_U10B.x_lm393.11)     .7626             

(X_U10B.x_lm393.21)    1.5449         (X_U10B.x_lm393.22)    3.7125             

(X$C_CLK_AtoD1.NORM)    1.2482        (X_U5A.xinstlm358.1)     .0916            

(X_U5A.xinstlm358.2)    2.9309        (X_U5A.xinstlm358.4)     .0130            

(X_U5A.xinstlm358.5)    2.9477        (X_U5A.xinstlm358.6)    2.4986            

(X_U5A.xinstlm358.7) 1000.0000        (X_U5A.xinstlm358.9)    3.0999            

(X_U9A.xinstlm358.1)     .0427        (X_U9A.xinstlm358.2)    1.5415            

(X_U9A.xinstlm358.4)     .0470        (X_U9A.xinstlm358.5)    1.5286            

(X_U9A.xinstlm358.6)     .9304        (X_U9A.xinstlm358.7) 1000.0000            

(X_U9A.xinstlm358.9)    3.0999        (X$N29999_AtoD1.NORM)     .9993           

(X_U5A.xinstlm358.10)     .4273       (X_U5A.xinstlm358.11)    -.5406           

(X_U5A.xinstlm358.12)    0.0000       (X_U5A.xinstlm358.14)    2.4052           

(X_U5A.xinstlm358.15)    2.4052       (X_U5A.xinstlm358.16)     .5449           

(X_U5A.xinstlm358.17)    2.9532       (X_U5A.xinstlm358.18)    2.4056           

(X_U5A.xinstlm358.20) 40.03E-06       (X_U5A.xinstlm358.21)    -.5598           

(X_U5A.xinstlm358.22)     .0279       (X_U5A.xinstlm358.24) 1000.8000           

(X_U5A.xinstlm358.25)     .4273       (X_U5A.xinstlm358.26)    1.1547           

(X_U5A.xinstlm358.27)    -.3001       (X_U9A.xinstlm358.10)    1.0069           

(X_U9A.xinstlm358.11)     .0414       (X_U9A.xinstlm358.12)    0.0000           

(X_U9A.xinstlm358.14)    2.4019       (X_U9A.xinstlm358.15)    2.4019           

(X_U9A.xinstlm358.16)     .4741       (X_U9A.xinstlm358.17)    1.5491           

(X_U9A.xinstlm358.18)    2.4021       (X_U9A.xinstlm358.20) 40.03E-06           

(X_U9A.xinstlm358.21)    -.4853       (X_U9A.xinstlm358.22)     .1095           

(X_U9A.xinstlm358.24) 1000.8000       (X_U9A.xinstlm358.25)    1.0069           

(X_U9A.xinstlm358.26)    1.7342       (X_U9A.xinstlm358.27)     .2795           

(X$TRANSMIT_DtoA1.DGND_OL)     .0022  (X$TRANSMIT_DtoA1.DPWR_OH)    4.9975      

(X$C_CLK_AtoD1.XNORM.THRESHOLD)    1.5000                



 DGTL NODE : STATE  DGTL NODE : STATE  DGTL NODE : STATE  DGTL NODE : STATE


(X_CD4026_2_U1A.D1) : 1               (M_UN0006) : 1     (  N32659) : 1         

(X_CD4026_2_U1A.D2) : 1               (M_UN0003) : 0                            

(X_CD4026_2_U1A.RESET) : 0            (X_CD4026_2_U1A.CLK4) : 1                 

(X_CD4026_1_U1A.D3) : 0               (X_CD4026_2_U1A.Q4) : 0                   

(X_CD4026_2_U1A.CLK1) : 0             (X_CD4026_1_U1A.CLK4) : 1                 

(X_CD4026_1_U1A.D4) : 1               (X_CD4026_1_U1A.Q1BAR) : 1                

(X_CD4026_2_U1A.Q1) : 0               (X_CD4026_1_U1A.CLK1) : 1                 

(X_CD4026_2_U1A.CLK) : 0              (  N32671) : 0     (delay_N00900) : 1     

(X_CD4026_2_U1A.Q2) : 0               (  N32655) : 1     (  N84729) : X         

(delay_N00924) : 1                    (X_CD4026_2_U1A.Q2BAR) : 1                

(X_CD4026_1_U1A.Q3) : 1               (M_UN0010) : 0     (delay_N00896) : 0     

(  N32613) : 0     (TRANSMIT$AtoD) : 0                   (   $D_HI) : 1         

(X_CD4026_1_U1A.Q4) : 0               (C_CLK$AtoD) : 1   (M_UN0007) : 0         

(SOUND$AtoD) : 0   (N29999$AtoD) : 1  (X_CD4026_2_U1A.D3) : 1                   

(M_UN0004) : 1     (X_CD4026_1_U1A.RESETBAR) : 1                                

(X_CD4026_1_U1A.Q4BAR) : 1            (  N32667) : 0     (M_UN0001) : 1         

(ECHO_A$DtoA) : 0  (X_CD4026_2_U1A.CLK2) : 1                                    

(X_CD4026_2_U1A.Q1BAR) : 1            (delay_N00920) : 0                        

(X_CD4026_1_U1A.CLK2) : 1             (ECHO_D$AtoD) : 0                         

(X_CD4026_2_U1A.EN) : 1               (X_CD4026_2_U1A.Q3) : 0                   

(delay_N00892) : 0                    (  N32683) : 0     (M_UN0008) : 1         

(M_UN0011) : 1     (CD4026_1_N004852) : 0                (TRANSMIT$DtoA) : 0    

(delay_N00908) : 1                    (X_CD4026_1_U1A.Q3BAR) : 0                

(C_CLK$AtoD2) : 1  (  N32663) : 0     (delay_N00916) : 1                        

(M_UN0005) : 0     (X_CD4026_2_U1A.Q4BAR) : 1                                   

(X_CD4026_1_U1A.D1) : 1               (X_CD4026_2_U1A.RESETBAR) : 1             

(  N32679) : 0     (X_CD4026_1_U1A.RESET) : 0            (M_UN0002) : X         

(  N32745) : 0     (X_CD4026_2_U1A.CLK3) : 1                                    

(X_CD4026_1_U1A.D2) : 1               (X_CD4026_1_U1A.EN) : 1                   

(X_CD4026_1_U1A.CLK3) : 1             (CD4026_2_N004852) : 0                    

(M_UN0009) : 1     (X_CD4026_1_U1A.Q1) : 0                                      

(X_CD4026_1_U1A.CLK) : 1              (M_UN0012) : 1                            

(X_CD4026_1_U1A.Q2BAR) : 1            (  N32675) : 0     (delay_N00904) : 0     

(X_CD4026_1_U1A.Q2) : 0               (X_CD4026_2_U1A.D4) : 1                   

(delay_N00912) : 0                    (X_CD4026_2_U1A.Q3BAR) : 1                

(delay_N00936) : 1                    


**** Interrupt ****
