
**** 12/03/22 19:47:54 ******* PSpice 17.4.0 (Nov 2018) ******* ID# 0 ********

 ** Profile: "LPF2-lpf2_3"  [ D:\cad\cadence\eed3009-pspicefiles\lpf2\lpf2_3.sim ] 


 ****     CIRCUIT DESCRIPTION


******************************************************************************




** Creating circuit file "lpf2_3.cir" 
** WARNING: THIS AUTOMATICALLY GENERATED FILE MAY BE OVERWRITTEN BY SUBSEQUENT SIMULATIONS

*Libraries: 
* Profile Libraries :
* Local Libraries :
.INC "C:/Users/Abdurrahman/Desktop/cd4007/cd4007.lib" 
* From [PSPICE NETLIST] section of D:\cad\cadence\cdssetup\OrCAD_PSpice\17.4.0\PSpice.ini file:

**** INCLUDING cd4007.lib ****
.model nnMOS NMOS (LEVEL=2 VTo=1.4 Kp=.6m LAMBDA=0.005)
.model ppMOS PMOS (LEVEL=2 VTo=-1.0 KP=.6m LAMBDA=0.01)

**** RESUMING lpf2_3.cir ****
.lib "nom.lib" 

*Analysis directives: 
.TRAN  0 50ms  0 5us 
.OPTIONS ADVCONV
.PROBE64 V(alias(*)) I(alias(*)) W(alias(*)) D(alias(*)) NOISE(alias(*)) 
.INC "..\LPF2.net" 



**** INCLUDING LPF2.net ****
* source EED3009
R_R12         N80591 N80505  1k TC=0,0 
C_C1         VIN N80591  1uF IC=-2.50V TC=0,0 
R_R3         N80891 VDD  10k TC=0,0 
R_R4         0 N80891  10k TC=0,0 
R_R10         N80591 VDD  10k TC=0,0 
R_R13         0 N80591  10k TC=0,0 
R_R9         N80505 VPA  22k TC=0,0 
X_U5A         N80891 N80505 VPA VDD 0 awblm358 PARAMS: AVOL=1E+5 VOS=2E-3
+  GBW=1E+6 IBOS=5E-9 IB=45E-9 CMRR=3.16228E+3 PSRR=1E+5 SR=0.5E+6 ISOURCE=40E-3
+  VPDIF=1
V_V3         VDD 0 5V
X_U6A         N86495 N80891 VDD 0 VPC LM393
R_R19         VPC VDD  1k TC=0,0 
R_R22         VPC N87381  33k TC=0,0 
C_C2         0 N87381  1n  TC=0,0 
V_Ultrasonic         VUS 0  
+PULSE -100mV 100mV 0 0.5us 0.5us 12.5u 25u
X_S1    VCON 0 N88343 0 LPF2_S1 
X_S2    VCON 0 VUS N88343 LPF2_S2 
V_Control         VCON 0  
+PULSE 0V 5V 2m 1n 1n 250u 6.25ms
R_R16         VIN N88343  500 TC=0,0 
X_U6B         N90763 N89030 VDD 0 VOUT LM393
R_R25         0 N89030  33k TC=0,0 
R_R26         N89030 VDD  22k TC=0,0 
R_R29         VOUT VDD  1k TC=0,0 
R_R30         VLP N90763  10k TC=0,0 
X_U7A         N87381 VLP VLP VDD 0 awblm358 PARAMS: AVOL=1E+5 VOS=2E-3 GBW=1E+6
+  IBOS=5E-9 IB=45E-9 CMRR=3.16228E+3 PSRR=1E+5 SR=0.5E+6 ISOURCE=40E-3 VPDIF=1
R_R31         N90763 VOUT  40k TC=0,0 
X_V4         N977761 0 VRNDMN PARAMS: NVAL=5
R_R32         N977761 0  150k TC=0,0 
R_R33         N86495 VPC  900k TC=0,0 
R_R34         VPA N86495  10k TC=0,0 

.subckt LPF2_S1 1 2 3 4  
S_S1         3 4 1 2 _S1
RS_S1         1 2 1G
.MODEL         _S1 VSWITCH Roff=1e6 Ron=1.0 Voff=5V Von=0V
.ends LPF2_S1

.subckt LPF2_S2 1 2 3 4  
S_S2         3 4 1 2 _S2
RS_S2         1 2 1G
.MODEL         _S2 VSWITCH Roff=1e6 Ron=1.0 Voff=0V Von=5V
.ends LPF2_S2

**** RESUMING lpf2_3.cir ****
.END

**** 12/03/22 19:47:54 ******* PSpice 17.4.0 (Nov 2018) ******* ID# 0 ********

 ** Profile: "LPF2-lpf2_3"  [ D:\cad\cadence\eed3009-pspicefiles\lpf2\lpf2_3.sim ] 


 ****     Diode MODEL PARAMETERS


******************************************************************************




               X_U6A.x_lm393.dx 
          IS  800.000000E-18 
          RS    1            


               X_U6B.x_lm393.dx 
          IS  800.000000E-18 
          RS    1            


**** 12/03/22 19:47:54 ******* PSpice 17.4.0 (Nov 2018) ******* ID# 0 ********

 ** Profile: "LPF2-lpf2_3"  [ D:\cad\cadence\eed3009-pspicefiles\lpf2\lpf2_3.sim ] 


 ****     BJT MODEL PARAMETERS


******************************************************************************




               X_U6A.x_lm393.qin 
               PNP             
       LEVEL    1            
          IS  800.000000E-18 
          BF    2.000000E+03 
          NF    1            
          BR    1            
          NR    1            
         ISS    0            
          RE    0            
          RC    0            
         CJE    0            
         VJE     .75         
         CJC    0            
         VJC     .75         
         MJC     .33         
        XCJC    1            
         CJS    0            
         VJS     .75         
          KF    0            
          AF    1            
          CN    2.2          
           D     .52         


               X_U6A.x_lm393.qmi 
               NPN             
       LEVEL    1            
          IS  800.000000E-18 
          BF    1.002000E+03 
          NF    1            
          BR    1            
          NR    1            
         ISS    0            
          RE    0            
          RC    0            
         CJE    0            
         VJE     .75         
         CJC    0            
         VJC     .75         
         MJC     .33         
        XCJC    1            
         CJS    0            
         VJS     .75         
          KF    0            
          AF    1            
          CN    2.42         
           D     .87         


               X_U6A.x_lm393.qmo 
               NPN             
       LEVEL    1            
          IS  800.000000E-18 
          BF    1.000000E+03 
          NF    1            
          BR    1            
          NR    1            
         ISS    0            
          RE    0            
          RC    0            
         CJE    0            
         VJE     .75         
         CJC    1.000000E-15 
         VJC     .75         
         MJC     .33         
        XCJC    1            
         CJS    0            
         VJS     .75         
          TR  475.400000E-09 
          KF    0            
          AF    1            
          CN    2.42         
           D     .87         


               X_U6A.x_lm393.qoc 
               NPN             
       LEVEL    1            
          IS  800.000000E-18 
          BF   20.690000E+03 
          NF    1            
          BR    1            
          NR    1            
         ISS    0            
          RE    0            
          RC    0            
         CJE    0            
         VJE     .75         
         CJC    1.000000E-15 
         VJC     .75         
         MJC     .33         
        XCJC    1            
         CJS    0            
         VJS     .75         
          TF    3.540000E-09 
          TR  472.800000E-09 
          KF    0            
          AF    1            
          CN    2.42         
           D     .87         


               X_U6B.x_lm393.qin 
               PNP             
       LEVEL    1            
          IS  800.000000E-18 
          BF    2.000000E+03 
          NF    1            
          BR    1            
          NR    1            
         ISS    0            
          RE    0            
          RC    0            
         CJE    0            
         VJE     .75         
         CJC    0            
         VJC     .75         
         MJC     .33         
        XCJC    1            
         CJS    0            
         VJS     .75         
          KF    0            
          AF    1            
          CN    2.2          
           D     .52         


               X_U6B.x_lm393.qmi 
               NPN             
       LEVEL    1            
          IS  800.000000E-18 
          BF    1.002000E+03 
          NF    1            
          BR    1            
          NR    1            
         ISS    0            
          RE    0            
          RC    0            
         CJE    0            
         VJE     .75         
         CJC    0            
         VJC     .75         
         MJC     .33         
        XCJC    1            
         CJS    0            
         VJS     .75         
          KF    0            
          AF    1            
          CN    2.42         
           D     .87         


               X_U6B.x_lm393.qmo 
               NPN             
       LEVEL    1            
          IS  800.000000E-18 
          BF    1.000000E+03 
          NF    1            
          BR    1            
          NR    1            
         ISS    0            
          RE    0            
          RC    0            
         CJE    0            
         VJE     .75         
         CJC    1.000000E-15 
         VJC     .75         
         MJC     .33         
        XCJC    1            
         CJS    0            
         VJS     .75         
          TR  475.400000E-09 
          KF    0            
          AF    1            
          CN    2.42         
           D     .87         


               X_U6B.x_lm393.qoc 
               NPN             
       LEVEL    1            
          IS  800.000000E-18 
          BF   20.690000E+03 
          NF    1            
          BR    1            
          NR    1            
         ISS    0            
          RE    0            
          RC    0            
         CJE    0            
         VJE     .75         
         CJC    1.000000E-15 
         VJC     .75         
         MJC     .33         
        XCJC    1            
         CJS    0            
         VJS     .75         
          TF    3.540000E-09 
          TR  472.800000E-09 
          KF    0            
          AF    1            
          CN    2.42         
           D     .87         


**** 12/03/22 19:47:54 ******* PSpice 17.4.0 (Nov 2018) ******* ID# 0 ********

 ** Profile: "LPF2-lpf2_3"  [ D:\cad\cadence\eed3009-pspicefiles\lpf2\lpf2_3.sim ] 


 ****     MOSFET MODEL PARAMETERS


******************************************************************************




               nnMOS           ppMOS           
               NMOS            PMOS            
       LEVEL    2               2            
           L  100.000000E-06  100.000000E-06 
           W  100.000000E-06  100.000000E-06 
         VTO    1.4            -1            
          KP  600.000000E-06  600.000000E-06 
       GAMMA    0               0            
         PHI     .6              .6          
      LAMBDA    5.000000E-03     .01         
          IS   10.000000E-15   10.000000E-15 
          JS    0               0            
          PB     .8              .8          
        PBSW     .8              .8          
          CJ    0               0            
        CJSW    0               0            
        CGSO    0               0            
        CGDO    0               0            
        CGBO    0               0            
         TOX  100.000000E-09  100.000000E-09 
          XJ    0               0            
       UCRIT   10.000000E+03   10.000000E+03 
      DIOMOD    1               1            
         VFB    0               0            
        LETA    0               0            
        WETA    0               0            
          U0    0               0            
        TEMP    0               0            
         VDD    5               5            
       XPART    0               0            


**** 12/03/22 19:47:54 ******* PSpice 17.4.0 (Nov 2018) ******* ID# 0 ********

 ** Profile: "LPF2-lpf2_3"  [ D:\cad\cadence\eed3009-pspicefiles\lpf2\lpf2_3.sim ] 


 ****     Voltage Controlled Switch MODEL PARAMETERS


******************************************************************************




               X_S1._S1        X_S2._S2        
         RON    1               1            
        ROFF    1.000000E+06    1.000000E+06 
         VON    0               5            
        VOFF    5               0            


**** 12/03/22 19:47:54 ******* PSpice 17.4.0 (Nov 2018) ******* ID# 0 ********

 ** Profile: "LPF2-lpf2_3"  [ D:\cad\cadence\eed3009-pspicefiles\lpf2\lpf2_3.sim ] 


 ****     INITIAL TRANSIENT SOLUTION       TEMPERATURE =   27.000 DEG C


******************************************************************************



 NODE   VOLTAGE     NODE   VOLTAGE     NODE   VOLTAGE     NODE   VOLTAGE


(  VDD)    5.0000  (  VIN)-594.3E-06  (  VLP)     .1082  (  VPA)    2.4685      

(  VPC)     .1072  (  VUS)    -.1000  ( VCON)    0.0000  ( VOUT)     .1018      

(N80505)    2.4981 (N80591)    2.4994 (N80891)    2.5003 (N86495)    2.4430     

(N87381)     .1088 (N88343)-1.286E-06 (N89030)    3.0000 (N90763)     .1073     

(N977761)     .0058                   (X_U6A.x_lm393.7)    3.8511               

(X_U6A.x_lm393.8)     .6008           (X_U6A.x_lm393.9)     .7623               

(X_U6B.x_lm393.7)    1.5181           (X_U6B.x_lm393.8)     .2267               

(X_U6B.x_lm393.9)     .7626           (X_U6A.x_lm393.10)     .7623              

(X_U6A.x_lm393.11)     .7623          (X_U6A.x_lm393.21)    3.1930              

(X_U6A.x_lm393.22)    3.2503          (X_U6B.x_lm393.10)     .7626              

(X_U6B.x_lm393.11)     .7626          (X_U6B.x_lm393.21)     .8573              

(X_U6B.x_lm393.22)    3.7500          (X_U5A.xinstlm358.1)     .0398            

(X_U5A.xinstlm358.2)    3.0920        (X_U5A.xinstlm358.4)     .0396            

(X_U5A.xinstlm358.5)    3.0920        (X_U5A.xinstlm358.6)    2.5002            

(X_U5A.xinstlm358.7) 1000.0000        (X_U5A.xinstlm358.9)    3.1034            

(X_U7A.xinstlm358.1)     .0395        (X_U7A.xinstlm358.2)     .7019            

(X_U7A.xinstlm358.4)     .0408        (X_U7A.xinstlm358.5)     .7014            

(X_U7A.xinstlm358.6)     .1088        (X_U7A.xinstlm358.7) 1000.0000            

(X_U7A.xinstlm358.9)    3.1034        (X_U5A.xinstlm358.10)    2.4968           

(X_U5A.xinstlm358.11)    1.4679       (X_U5A.xinstlm358.12)    0.0000           

(X_U5A.xinstlm358.14)    2.4999       (X_U5A.xinstlm358.15)    2.4999           

(X_U5A.xinstlm358.16)    -.4089       (X_U5A.xinstlm358.17)    3.1059           

(X_U5A.xinstlm358.18)    2.4999       (X_U5A.xinstlm358.20) 40.03E-06           

(X_U5A.xinstlm358.21)     .9729       (X_U5A.xinstlm358.22)    1.5685           

(X_U5A.xinstlm358.24) 1000.8000       (X_U5A.xinstlm358.25)    2.4968           

(X_U5A.xinstlm358.26)    3.2246       (X_U5A.xinstlm358.27)    1.7689           

(X_U7A.xinstlm358.10)     .1240       (X_U7A.xinstlm358.11)    -.8438           

(X_U7A.xinstlm358.12)    0.0000       (X_U7A.xinstlm358.14)    2.4999           

(X_U7A.xinstlm358.15)    2.4999       (X_U7A.xinstlm358.16)     .8438           

(X_U7A.xinstlm358.17)     .7157       (X_U7A.xinstlm358.18)    2.5140           

(X_U7A.xinstlm358.20) 40.03E-06       (X_U7A.xinstlm358.21)    -.5745           

(X_U7A.xinstlm358.22)     .0059       (X_U7A.xinstlm358.24) 1000.8000           

(X_U7A.xinstlm358.25)     .1240       (X_U7A.xinstlm358.26)     .8519           

(X_U7A.xinstlm358.27)    -.6039       




    VOLTAGE SOURCE CURRENTS
    NAME         CURRENT

    V_V3        -1.122E-02
    V_Ultrasonic   1.000E-07
    V_Control    0.000E+00
    X_U5A.xinstlm358.VFI7  -7.359E-08
    X_U5A.xinstlm358.VFI6  -7.359E-08
    X_U5A.xinstlm358.VREF   1.487E+00
    X_U6A.x_lm393.vi1   4.506E-08
    X_U6A.x_lm393.vi2   4.913E-09
    X_U6A.x_lm393.v1   8.031E-05
    X_U6B.x_lm393.vi1   4.997E-08
    X_U6B.x_lm393.vi2  -3.525E-12
    X_U6B.x_lm393.v1   9.995E-05
    X_U7A.xinstlm358.VFI7   1.474E+00
    X_U7A.xinstlm358.VFI6   8.538E-13
    X_U7A.xinstlm358.VREF   1.487E+00

    TOTAL POWER DISSIPATION  -2.97E+03  WATTS

Reducing minimum delta to make the circuit converge.
Reducing minimum delta to make the circuit converge.
Reducing minimum delta to make the circuit converge.
Reducing minimum delta to make the circuit converge.
Reducing minimum delta to make the circuit converge.

ERROR(ORPSIM-15138): Convergence problem in Transient Analysis at Time =  2.022E-03.
         Time step =  277.4E-21, minimum allowable step size =  1.000E-18

  These voltages failed to converge:

    V(N80591)                 =     2.429V  \     2.433V
    V(N80505)                 =     2.486V  \     2.490V
    V(VIN)                    =   -69.52mV  \   -65.11mV
    V(N977761)                =    25.64mV  \     2.597V
    V(X_U7A.xinstlm358.16)    =  -434.51mV  \  -435.34mV
    V(X_U7A.xinstlm358.11)    =   -10.75KV  \ 523.18e-21V

  These supply currents failed to converge:

    I(X_V4.E1)                =  -170.90nA  \   -17.31uA
    I(X_U5A.xinstlm358.EU1)   =    39.82nA  \    42.31nA
    I(X_U5A.xinstlm358.E2)    =  -173.68nA  \  -173.49nA
    I(X_U5A.xinstlm358.EVM)   =         0A  \    58.21pA
    I(X_U6A.x_lm393.e1)       =    6.186nA  \    11.64pA
    I(X_U6B.x_lm393.e1)       =  -100.12uA  \   -99.95uA
    I(X_U7A.xinstlm358.EU1)   =    69.20nA  \    37.01nA
    I(X_U7A.xinstlm358.EVM)   =   -14.90nA  \         0A
    I(V_Ultrasonic)           =    60.94uA  \    69.75uA
    I(X_U6A.x_lm393.v1)       =   -6.186nA  \   -11.64pA
    I(X_U6B.x_lm393.v1)       =   100.12uA  \    99.95uA
    I(X_U7A.xinstlm358.VFI7)  =  -197.58nA  \  -204.15nA
    I(X_U7A.xinstlm358.VFI6)  =  -197.58nA  \  -204.15nA

  These devices failed to converge:
    X_U7A.xinstlm358.D5 X_V4.E1   X_U5A.xinstlm358.QIP X_U5A.xinstlm358.QIN 
    X_U6A.x_lm393.q3 



  Last node voltages tried were:

 NODE   VOLTAGE     NODE   VOLTAGE     NODE   VOLTAGE     NODE   VOLTAGE


(  VDD)    5.0000  (  VIN)    -.0695  (  VLP)     .8627  (  VPA)    3.7369      

(  VPC)    4.8777  (  VUS)    -.1000  ( VCON)    5.0000  ( VOUT)     .1018      

(N80505)    2.4857 (N80591)    2.4288 (N80891)    2.5004 (N86495)    3.7494     

(N87381)     .8842 (N88343)    -.0999 (N89030)    3.0000 (N90763)     .7110     

(N977761)     .0256                   (X_U6A.x_lm393.7)    3.9113               

(X_U6A.x_lm393.8)     .6503           (X_U6A.x_lm393.9)     .0179               

(X_U6B.x_lm393.7)    2.1218           (X_U6B.x_lm393.8)     .2273               

(X_U6B.x_lm393.9)     .7626           (X_U6A.x_lm393.10)     .0179              

(X_U6A.x_lm393.11)     .0179          (X_U6A.x_lm393.21)    4.4994              

(X_U6A.x_lm393.22)    3.2504          (X_U6B.x_lm393.10)     .7626              

(X_U6B.x_lm393.11)     .7626          (X_U6B.x_lm393.21)    1.4610              

(X_U6B.x_lm393.22)    3.7500          (X_U5A.xinstlm358.1)     .0439            

(X_U5A.xinstlm358.2)    3.0834        (X_U5A.xinstlm358.4)     .0355            

(X_U5A.xinstlm358.5)    3.0878        (X_U5A.xinstlm358.6)    2.5004            

(X_U5A.xinstlm358.7) 1000.0000        (X_U5A.xinstlm358.9)    3.1034            

(X_U7A.xinstlm358.1)     .0497        (X_U7A.xinstlm358.2)    1.4624            

(X_U7A.xinstlm358.4)     .0304        (X_U7A.xinstlm358.5)    1.4691            

(X_U7A.xinstlm358.6)     .8841        (X_U7A.xinstlm358.7) 1000.0000            

(X_U7A.xinstlm358.9)    3.1034        (X_U5A.xinstlm358.10)    3.7750           

(X_U5A.xinstlm358.11)    2.8071       (X_U5A.xinstlm358.12)    0.0000           

(X_U5A.xinstlm358.14)    2.4998       (X_U5A.xinstlm358.15)    2.4998           

(X_U5A.xinstlm358.16)    -.6716       (X_U5A.xinstlm358.17)    3.0995           

(X_U5A.xinstlm358.18)    2.4996       (X_U5A.xinstlm358.20) 40.03E-06           

(X_U5A.xinstlm358.21)    2.2413       (X_U5A.xinstlm358.22)    2.8369           

(X_U5A.xinstlm358.24) 1000.8000       (X_U5A.xinstlm358.25)    3.7750           

(X_U5A.xinstlm358.26)    4.5027       (X_U5A.xinstlm358.27)    3.0471           

(X_U7A.xinstlm358.10)     .8928       (X_U7A.xinstlm358.11)-10.75E+03           

(X_U7A.xinstlm358.12)    0.0000       (X_U7A.xinstlm358.14)    2.4999           

(X_U7A.xinstlm358.15)    2.4999       (X_U7A.xinstlm358.16)    -.4345           

(X_U7A.xinstlm358.17)    1.4797       (X_U7A.xinstlm358.18)    2.5002           

(X_U7A.xinstlm358.20) 40.03E-06       (X_U7A.xinstlm358.21)    -.5229           

(X_U7A.xinstlm358.22)     .0711       (X_U7A.xinstlm358.24) 1000.8000           

(X_U7A.xinstlm358.25)     .8928       (X_U7A.xinstlm358.26)    1.6206           

(X_U7A.xinstlm358.27)     .1649       


**** Interrupt ****
**** Param: RELTOL = 0.001
**** Param: ABSTOL = 1e-12
**** Param: VNTOL = 1e-06
**** Param: GMIN = 1e-9
**** Param: TSTOP = 0.05
**** Param: TMAX = 5e-06
**** Param: ITL1 = 150
**** Param: ITL2 = 20
**** Param: ITL4 = 100
**** Param: AutoConverge = 0
**** Param: AutoConverge.ITL1 = 1000
**** Param: AutoConverge.ITL2 = 1000
**** Param: AutoConverge.ITL4 = 1000
**** Param: AutoConverge.RELTOL = 0.05
**** Param: AutoConverge.ABSTOL = 0.001
**** Param: AutoConverge.VNTOL = 0.001
**** Param: AutoConverge.PIVTOL = 1e-10
**** Param: ADVCONV = 1
**** Param: Current_Simulation = 3
**** Param: METHOD = 0
**** Param: TRTOL = 7
**** Param: STEPGMIN = 0
**** Param: GMINSTEPS = 0
**** Param: ITL6 = 0
**** Param: NOSTEPDEP = 0
**** Param: PTRANSTEP = 0
**** Param: GMINSRC = 0
**** Param: PSEUDOTRAN = 0
**** Param: NOSTEPSRC = 0

ERROR(ORPSIM-15138): Convergence problem in Transient Analysis at Time =  .033.
         Time step =  500.0E-21, minimum allowable step size =  1.000E-18

  These voltages failed to converge:

    V(N80591)                 =     2.526V  \     2.499V
    V(N80505)                 =     2.525V  \     2.498V
    V(VIN)                    =    27.76mV  \    2.723uV
    V(N88343)                 =    55.30uV  \   -94.37nV
    V(N977761)                =     1.884V  \     4.655V
    V(X_U5A.xinstlm358.16)    =  -405.31mV  \  -407.45mV
    V(X_U5A.xinstlm358.5)     =     3.101V  \     3.092V
    V(X_U5A.xinstlm358.2)     =     3.110V  \     3.092V
    V(X_U5A.xinstlm358.17)    =     3.119V  \     3.106V
    V(X_U7A.xinstlm358.11)    =     3.725V  \     3.098V

  These supply currents failed to converge:

    I(X_V4.E1)                =   -12.56uA  \   -31.03uA
    I(X_U5A.xinstlm358.EU1)   =    60.56nA  \    44.81nA
    I(X_U5A.xinstlm358.E2)    =  -113.83nA  \  -115.02nA
    I(X_U5A.xinstlm358.EVM)   =         0A  \    1.551nA
    I(X_U6A.x_lm393.e1)       =    51.96nA  \    4.956nA
    I(X_U6B.x_lm393.e1)       =   -12.28nA  \    4.963nA
    I(X_U7A.xinstlm358.EU1)   =   -35.44nA  \   -4.999nA
    I(X_U7A.xinstlm358.EVM)   =    3.725nA  \    3.098nA
    I(V_V3)                   =   -1.650mA  \   -1.654mA
    I(X_U5A.xinstlm358.VFI7)  =   -64.51nA  \   -70.25nA
    I(X_U5A.xinstlm358.VFI6)  =   -64.10nA  \   -69.84nA
    I(X_U6A.x_lm393.vi1)      =    13.23nA  \    13.31nA
    I(X_U6A.x_lm393.vi2)      =    30.91nA  \    30.83nA
    I(X_U6A.x_lm393.v1)       =   -51.96nA  \   -4.956nA
    I(X_U6B.x_lm393.v1)       =    12.28nA  \   -4.963nA

  These devices failed to converge:
    X_U5A.xinstlm358.D4 X_V4.E1   X_U5A.xinstlm358.QIP X_U5A.xinstlm358.QIN 
    X_U6A.x_lm393.q3 X_U6A.x_lm393.q5 X_U6B.x_lm393.q3 X_U6B.x_lm393.q5 



  Last node voltages tried were:

 NODE   VOLTAGE     NODE   VOLTAGE     NODE   VOLTAGE     NODE   VOLTAGE


(  VDD)    5.0000  (  VIN)     .0278  (  VLP)    4.0447  (  VPA)    2.4912      

(  VPC)    4.9972  (  VUS)    -.1000  ( VCON)    0.0000  ( VOUT)    4.9813      

(N80505)    2.5248 (N80591)    2.5263 (N80891)    2.5005 (N86495)    2.5188     

(N87381)    4.9971 (N88343) 55.30E-06 (N89030)    3.0006 (N90763)    4.2320     

(N977761)    1.8842                   (X_U6A.x_lm393.7)    3.9010               

(X_U6A.x_lm393.8)     .6457           (X_U6A.x_lm393.9)     .0414               

(X_U6B.x_lm393.7)    4.4115           (X_U6B.x_lm393.8)     .6503               

(X_U6B.x_lm393.9)     .0179           (X_U6A.x_lm393.10)     .0414              

(X_U6A.x_lm393.11)     .0414          (X_U6A.x_lm393.21)    3.2688              

(X_U6A.x_lm393.22)    3.2505          (X_U6B.x_lm393.10)     .0179              

(X_U6B.x_lm393.11)     .0179          (X_U6B.x_lm393.21)    4.9820              

(X_U6B.x_lm393.22)    3.7506          (X_U5A.xinstlm358.1)     .0398            

(X_U5A.xinstlm358.2)    3.1100        (X_U5A.xinstlm358.4)     .0396            

(X_U5A.xinstlm358.5)    3.1008        (X_U5A.xinstlm358.6)    2.5004            

(X_U5A.xinstlm358.7) 1000.0000        (X_U5A.xinstlm358.9)    3.1034            

(X_U7A.xinstlm358.1)     .0788        (X_U7A.xinstlm358.2)    4.6562            

(X_U7A.xinstlm358.4) 51.36E-06        (X_U7A.xinstlm358.5)    4.6838            

(X_U7A.xinstlm358.6)    4.9970        (X_U7A.xinstlm358.7) 1000.0000            

(X_U7A.xinstlm358.9)    3.1034        (X_U5A.xinstlm358.10)    2.5183           

(X_U5A.xinstlm358.11)    1.5505       (X_U5A.xinstlm358.12)    0.0000           

(X_U5A.xinstlm358.14)    2.4999       (X_U5A.xinstlm358.15)    2.4999           

(X_U5A.xinstlm358.16)    -.4053       (X_U5A.xinstlm358.17)    3.1194           

(X_U5A.xinstlm358.18)    2.4999       (X_U5A.xinstlm358.20) 40.03E-06           

(X_U5A.xinstlm358.21)     .9956       (X_U5A.xinstlm358.22)    1.5912           

(X_U5A.xinstlm358.24) 1000.8000       (X_U5A.xinstlm358.25)    2.5183           

(X_U5A.xinstlm358.26)    3.2461       (X_U5A.xinstlm358.27)    1.7904           

(X_U7A.xinstlm358.10)    4.0683       (X_U7A.xinstlm358.11)    3.7253           

(X_U7A.xinstlm358.12)    0.0000       (X_U7A.xinstlm358.14)    2.4998           

(X_U7A.xinstlm358.15)    2.4998       (X_U7A.xinstlm358.16)    -.9649           

(X_U7A.xinstlm358.17)    4.6838       (X_U7A.xinstlm358.18)    1.0285           

(X_U7A.xinstlm358.20) 40.03E-06       (X_U7A.xinstlm358.21)    2.5491           

(X_U7A.xinstlm358.22)    3.1446       (X_U7A.xinstlm358.24) 1000.8000           

(X_U7A.xinstlm358.25)    4.0683       (X_U7A.xinstlm358.26)    4.7961           

(X_U7A.xinstlm358.27)    3.3404       


**** Interrupt ****
