
**** 12/04/22 21:19:23 ******* PSpice 17.4.0 (Nov 2018) ******* ID# 0 ********

 ** Profile: "root-root_tran10"  [ D:\cad\cadence\EED3009-PSpiceFiles\root\root_tran10.sim ] 


 ****     CIRCUIT DESCRIPTION


******************************************************************************




** Creating circuit file "root_tran10.cir" 
** WARNING: THIS AUTOMATICALLY GENERATED FILE MAY BE OVERWRITTEN BY SUBSEQUENT SIMULATIONS

*Libraries: 
* Profile Libraries :
* Local Libraries :
.INC "C:/Users/Abdurrahman/Desktop/cd4007/cd4007.lib" 
* From [PSPICE NETLIST] section of D:\cad\cadence\cdssetup\OrCAD_PSpice\17.4.0\PSpice.ini file:

**** INCLUDING cd4007.lib ****
.model nnMOS NMOS (LEVEL=2 VTo=1.4 Kp=.6m LAMBDA=0.005)
.model ppMOS PMOS (LEVEL=2 VTo=-1.0 KP=.6m LAMBDA=0.01)

**** RESUMING root_tran10.cir ****
.lib "nom.lib" 

*Analysis directives: 
.TRAN  0 13ms 27ms 
.OPTIONS ADVCONV
.OPTIONS ABSTOL= 1.0n
.OPTIONS CHGTOL= 0.1p
.OPTIONS DIGINITSTATE= 0
.OPTIONS GMIN= 1.0E-9
.PROBE64 V(alias(*)) I(alias(*)) W(alias(*)) D(alias(*)) NOISE(alias(*)) 
.INC "..\root.net" 



**** INCLUDING root.net ****
* source EED3009
C_C_eq         N293890 VO-  1.82nF  TC=0,0 
M_M4         VO+ SOUND VDD VDD ppMOS           
M_M3         VO+ SOUND 0 0 nnMOS           
R_R21         N29217 VDD  1k TC=0,0 
R_R12         N29991 N29853  3.6k TC=0,0 
C_C21         0 N29421  330pF IC=-1.65V TC=0,0 
X_U1         0 N29991 N29999 VDD N30031 N29991 N29853 VDD 555C
M_M6         VO- /SOUND VDD VDD ppMOS           
X_U2A         N29999 TRANSMIT $G_DPWR $G_DGND 74HC14 PARAMS:
+ IO_LEVEL=0 MNTYMXDLY=0
M_M1         /SOUND SOUND 0 0 nnMOS           
X_U3         0 N29421 SOUND TRANSMIT N29551 N29421 N29217 VDD 555C
M_M2         /SOUND SOUND VDD VDD ppMOS           
C_C12         0 N30031  10n  TC=0,0 
C_C22         0 N29551  10n  TC=0,0 
M_M5         VO- /SOUND 0 0 nnMOS           
R_R_esr         VO+ N293890  10 TC=0,0 
C_C11         0 N29991  100nF IC=-1.65V TC=0,0 
X_CD4026_1_U3         CD4026_1_N004852 C_CLK N32613 M_UN0001 $G_DPWR $G_DGND
+  DFF
X_CD4026_1_U2         N32655 N32667 CD4026_1_N004852  $G_DPWR $G_DGND AND2
X_CD4026_1_U1A         C_CLK N32745 $D_HI N32655 N32659 N32663 N32667
+  $G_CD4000_VDD $G_CD4000_VSS CD4518B PARAMS:
+ IO_LEVEL=0 MNTYMXDLY=0
X_CD4026_2_U3         CD4026_2_N004852 N32613 N84729 M_UN0002 $G_DPWR $G_DGND
+  DFF
X_CD4026_2_U2         N32671 N32683 CD4026_2_N004852  $G_DPWR $G_DGND AND2
X_CD4026_2_U1A         N32613 N32745 $D_HI N32671 N32675 N32679 N32683
+  $G_CD4000_VDD $G_CD4000_VSS CD4518B PARAMS:
+ IO_LEVEL=0 MNTYMXDLY=0
R_R52         N74666 N74582  3.3k TC=0,0 
C_C51         0 N74666  1nF IC=-1.65V TC=0,0 
C_C52         0 N74696  10n  TC=0,0 
R_R51         VDD N74582  3890 TC=0,0 
X_U5         0 N74666 C_CLK VDD N74696 N74666 N74582 VDD 555C
C_C62         0 VDD  0.1uF  TC=0,0 
C_C61         0 N86762  0.33pF  TC=0,0 
X_U6         N86762 VDD 0 LM7805C
V_V1         N86762 0 9V
R_R73         N97606 N97476  1k TC=0,0 
X_U7B         N98046 VLP VLP VDD 0 awblm358 PARAMS: AVOL=1E+5 VOS=2E-3 GBW=1E+6
+  IBOS=5E-9 IB=45E-9 CMRR=3.16228E+3 PSRR=1E+5 SR=0.5E+6 ISOURCE=40E-3 VPDIF=1
R_R71         N97606 VDD  10k TC=0,0 
C_C71         ECHO_A N97606  1uF IC=-2.50V TC=0,0 
R_R83         VPC VDD  1k TC=0,0 
R_R105         0 N98078  30k TC=0,0 
X_U8A         N97556 REF_2V5 VDD 0 VPC LM393
R_R102         N97588 ECHO_D  40k TC=0,0 
R_R81         VPA N97556  10k TC=0,0 
R_R61         REF_2V5 VDD  10k TC=0,0 
R_R91         VPC N98046  33k TC=0,0 
R_R103         ECHO_D VDD  1k TC=0,0 
R_R104         N98078 VDD  20k TC=0,0 
C_C91         0 N98046  1n  TC=0,0 
R_R72         0 N97606  10k TC=0,0 
R_R101         VLP N97588  10k TC=0,0 
X_U8B         N97588 N98078 VDD 0 ECHO_D LM393
R_R82         N97556 VPC  100k TC=0,0 
R_R9         N97476 VPA  22k TC=0,0 
X_U7A         REF_2V5 N97476 VPA VDD 0 awblm358 PARAMS: AVOL=1E+5 VOS=2E-3
+  GBW=1E+6 IBOS=5E-9 IB=45E-9 CMRR=3.16228E+3 PSRR=1E+5 SR=0.5E+6 ISOURCE=40E-3
+  VPDIF=1
C_C64         0 REF_2V5  100uF  TC=0,0 
R_R62         0 REF_2V5  10k TC=0,0 
C_C63         REF_2V5 VDD  100uF  TC=0,0 
X_D2         N109008 0 LED PARAMS: IS=1.7603e-27 RS=2  BV=5 IBV=10e-6         
R_R18         N109008 0  10k TC=0,0 
R_R11         N29853 VDD  91k TC=0,0 
R_R22         N29217 N29421  54.66k TC=0,0 
R_R3         N130528 N130552  100k TC=0,0 
C_C1         N1304641 N130528  300p  TC=0,0 
V_V3         N130552 0 2.5V
C_out_signal_C22         0 out_signal_N123881  10n  TC=0,0 
R_out_signal_R22         out_signal_N123613 out_signal_N123785  54.66k TC=0,0 
X_out_signal_U3         0 out_signal_N123785 N1304641 N130514
+  out_signal_N123881 out_signal_N123785 out_signal_N123613 VDD 555C
R_out_signal_R21         out_signal_N123613 VDD  1k TC=0,0 
C_out_signal_C21         0 out_signal_N123785  330pF IC=-1.65V TC=0,0 
R_R1         0 ECHO_A  100k TC=0,0 
E_E1         ECHO_A 0 N130528 N130552 0.1
U_DSTM1         STIM(1,1) $G_DPWR $G_DGND N131716 IO_STM IO_LEVEL=0 
+ 0 0
+ +25us 1
+REPEAT FOREVER
+ +25us 0
+  +25us 1
+ ENDREPEAT
X_delaydd_U6         delaydd_N00908 N131716 delaydd_N00912 M_UN0003 VDD 0 DFF
X_delaydd_U5         delaydd_N00904 N131716 delaydd_N00908 M_UN0004 VDD 0 DFF
X_delaydd_U10         delaydd_N00924 N131716 N130514 0 VDD 0 DFF
X_delaydd_U9         delaydd_N00920 N131716 delaydd_N00924 M_UN0005 VDD 0 DFF
X_delaydd_U4         delaydd_N00900 N131716 delaydd_N00904 M_UN0006 VDD 0 DFF
X_delaydd_U3         delaydd_N00896 N131716 delaydd_N00900 M_UN0007 VDD 0 DFF
X_delaydd_U1         TRANSMIT N131716 delaydd_N00892 M_UN0008 VDD 0 DFF
X_delaydd_U8         delaydd_N00916 N131716 delaydd_N00920 M_UN0009 VDD 0 DFF
X_delaydd_U2         delaydd_N00892 N131716 delaydd_N00896 M_UN0010 VDD 0 DFF
X_delaydd_U7         delaydd_N00912 N131716 delaydd_N00916 M_UN0011 VDD 0 DFF
X_U9         N1352440 TRANSMIT N32745 $G_DPWR $G_DGND OR2
X_U10         ECHO_D N1352440  $G_DPWR $G_DGND INV

**** RESUMING root_tran10.cir ****
.END


**** Generated AtoD and DtoA Interfaces ****

*
* Analog/Digital interface for node 0
*
* Moving X_delaydd_U10.U1:QBAR1 from analog node 0 to new digital node 0$DtoA
X$0_DtoA1
+ 0$DtoA
+ 0
+ VDD
+ 0
+ DtoAdefault
+       PARAMS: DRVH=  50     DRVL=  50     CAPACITANCE=   0     
*
* Analog/Digital interface for node ECHO_D
*
* Moving X_U10.U1:IN1 from analog node ECHO_D to new digital node ECHO_D$AtoD
X$ECHO_D_AtoD1
+ ECHO_D
+ ECHO_D$AtoD
+ $G_DPWR
+ $G_DGND
+ AtoDdefault
+       PARAMS: CAPACITANCE=   0     
*
* Analog/Digital interface for node N29999
*
* Moving X_U2A.U1:IN1 from analog node N29999 to new digital node N29999$AtoD
X$N29999_AtoD1
+ N29999
+ N29999$AtoD
+ $G_DPWR
+ $G_DGND
+ AtoD_HC_ST
+       PARAMS: CAPACITANCE=   3.5000E-12
*
* Analog/Digital interface for node TRANSMIT
*
* Moving X_U9.U1:IN2 from analog node TRANSMIT to new digital node TRANSMIT$AtoD
X$TRANSMIT_AtoD1
+ TRANSMIT
+ TRANSMIT$AtoD
+ $G_DPWR
+ $G_DGND
+ AtoDdefault
+       PARAMS: CAPACITANCE=   0     
* Moving X_delaydd_U1.U1:D1 from analog node TRANSMIT to new digital node TRANSMIT$AtoD2
X$TRANSMIT_AtoD2
+ TRANSMIT
+ TRANSMIT$AtoD2
+ VDD
+ 0
+ AtoDdefault
+       PARAMS: CAPACITANCE=   0     
* Moving X_U2A.U1:OUT1 from analog node TRANSMIT to new digital node TRANSMIT$DtoA
X$TRANSMIT_DtoA1
+ TRANSMIT$DtoA
+ TRANSMIT
+ $G_DPWR
+ $G_DGND
+ DtoA_HC
+       PARAMS: DRVH=  87     DRVL=  87     CAPACITANCE=   0     
*
* Analog/Digital interface for node C_CLK
*
* Moving X_CD4026_1_U1A.UCD4518BLOG:IN1 from analog node C_CLK to new digital node C_CLK$AtoD
X$C_CLK_AtoD1
+ C_CLK
+ C_CLK$AtoD
+ $G_CD4000_VDD
+ $G_CD4000_VSS
+ AtoD_4000B
+       PARAMS: CAPACITANCE=   0     
* Moving X_CD4026_1_U3.U1:CLK from analog node C_CLK to new digital node C_CLK$AtoD2
X$C_CLK_AtoD2
+ C_CLK
+ C_CLK$AtoD2
+ $G_DPWR
+ $G_DGND
+ AtoDdefault
+       PARAMS: CAPACITANCE=   0     
*
* Analog/Digital interface for node N130514
*
* Moving X_delaydd_U10.U1:Q1 from analog node N130514 to new digital node N130514$DtoA
X$N130514_DtoA1
+ N130514$DtoA
+ N130514
+ VDD
+ 0
+ DtoAdefault
+       PARAMS: DRVH=  50     DRVL=  50     CAPACITANCE=   0     
*
* Analog/Digital interface power supply subcircuits
*
X$CD4000_PWR 0 CD4000_PWR
X$DIGIFPWR 0 DIGIFPWR


**** 12/04/22 21:19:23 ******* PSpice 17.4.0 (Nov 2018) ******* ID# 0 ********

 ** Profile: "root-root_tran10"  [ D:\cad\cadence\EED3009-PSpiceFiles\root\root_tran10.sim ] 


 ****     Diode MODEL PARAMETERS


******************************************************************************




               X_U1.DIODE      X_U3.DIODE      X_U5.DIODE      X_D2.model201   
          IS   10.000000E-15   10.000000E-15   10.000000E-15    1.760300E-27 
           N                                                    2            
          BV                                                    5            
         IBV                                                   10.000000E-06 
          RS     .01             .01             .01            2            


               X_out_signal_U3.DIODE           X_U6.x1.Dlim    X_U6.x1.Dz      
          IS   10.000000E-15                   10.000000E-15   50.000000E-15 
          BV                    7.11         
         IBV                   50.000000E-09 
          RS     .01                                            3            
          VJ     .7                          


               X_U8A.x_lm393.dx 
          IS  800.000000E-18 
          RS    1            


               X_U8B.x_lm393.dx                D74CLMP         
          IS  800.000000E-18                    1.000000E-15 
          RS    1                               2            
         CJO    2.000000E-12 


**** 12/04/22 21:19:23 ******* PSpice 17.4.0 (Nov 2018) ******* ID# 0 ********

 ** Profile: "root-root_tran10"  [ D:\cad\cadence\EED3009-PSpiceFiles\root\root_tran10.sim ] 


 ****     BJT MODEL PARAMETERS


******************************************************************************




               X_U6.x1.Npn1    X_U8A.x_lm393.qin 
               NPN             PNP             
       LEVEL    1               1            
          IS   10.000000E-15  800.000000E-18 
          BF   50               2.000000E+03 
          NF    1               1            
          BR    1               1            
          NR    1               1            
         ISS    0               0            
          RE    0               0            
          RC    0               0            
         CJE    0               0            
         VJE     .75             .75         
         CJC    0               0            
         VJC     .75             .75         
         MJC     .33             .33         
        XCJC    1               1            
         CJS    0               0            
         VJS     .75             .75         
          KF    0               0            
          AF    1               1            
          CN    2.42            2.2          
           D     .87             .52         


               X_U8A.x_lm393.qmi 
               NPN             
       LEVEL    1            
          IS  800.000000E-18 
          BF    1.002000E+03 
          NF    1            
          BR    1            
          NR    1            
         ISS    0            
          RE    0            
          RC    0            
         CJE    0            
         VJE     .75         
         CJC    0            
         VJC     .75         
         MJC     .33         
        XCJC    1            
         CJS    0            
         VJS     .75         
          KF    0            
          AF    1            
          CN    2.42         
           D     .87         


               X_U8A.x_lm393.qmo 
               NPN             
       LEVEL    1            
          IS  800.000000E-18 
          BF    1.000000E+03 
          NF    1            
          BR    1            
          NR    1            
         ISS    0            
          RE    0            
          RC    0            
         CJE    0            
         VJE     .75         
         CJC    1.000000E-15 
         VJC     .75         
         MJC     .33         
        XCJC    1            
         CJS    0            
         VJS     .75         
          TR  475.400000E-09 
          KF    0            
          AF    1            
          CN    2.42         
           D     .87         


               X_U8A.x_lm393.qoc 
               NPN             
       LEVEL    1            
          IS  800.000000E-18 
          BF   20.690000E+03 
          NF    1            
          BR    1            
          NR    1            
         ISS    0            
          RE    0            
          RC    0            
         CJE    0            
         VJE     .75         
         CJC    1.000000E-15 
         VJC     .75         
         MJC     .33         
        XCJC    1            
         CJS    0            
         VJS     .75         
          TF    3.540000E-09 
          TR  472.800000E-09 
          KF    0            
          AF    1            
          CN    2.42         
           D     .87         


               X_U8B.x_lm393.qin 
               PNP             
       LEVEL    1            
          IS  800.000000E-18 
          BF    2.000000E+03 
          NF    1            
          BR    1            
          NR    1            
         ISS    0            
          RE    0            
          RC    0            
         CJE    0            
         VJE     .75         
         CJC    0            
         VJC     .75         
         MJC     .33         
        XCJC    1            
         CJS    0            
         VJS     .75         
          KF    0            
          AF    1            
          CN    2.2          
           D     .52         


               X_U8B.x_lm393.qmi 
               NPN             
       LEVEL    1            
          IS  800.000000E-18 
          BF    1.002000E+03 
          NF    1            
          BR    1            
          NR    1            
         ISS    0            
          RE    0            
          RC    0            
         CJE    0            
         VJE     .75         
         CJC    0            
         VJC     .75         
         MJC     .33         
        XCJC    1            
         CJS    0            
         VJS     .75         
          KF    0            
          AF    1            
          CN    2.42         
           D     .87         


               X_U8B.x_lm393.qmo 
               NPN             
       LEVEL    1            
          IS  800.000000E-18 
          BF    1.000000E+03 
          NF    1            
          BR    1            
          NR    1            
         ISS    0            
          RE    0            
          RC    0            
         CJE    0            
         VJE     .75         
         CJC    1.000000E-15 
         VJC     .75         
         MJC     .33         
        XCJC    1            
         CJS    0            
         VJS     .75         
          TR  475.400000E-09 
          KF    0            
          AF    1            
          CN    2.42         
           D     .87         


               X_U8B.x_lm393.qoc 
               NPN             
       LEVEL    1            
          IS  800.000000E-18 
          BF   20.690000E+03 
          NF    1            
          BR    1            
          NR    1            
         ISS    0            
          RE    0            
          RC    0            
         CJE    0            
         VJE     .75         
         CJC    1.000000E-15 
         VJC     .75         
         MJC     .33         
        XCJC    1            
         CJS    0            
         VJS     .75         
          TF    3.540000E-09 
          TR  472.800000E-09 
          KF    0            
          AF    1            
          CN    2.42         
           D     .87         


**** 12/04/22 21:19:23 ******* PSpice 17.4.0 (Nov 2018) ******* ID# 0 ********

 ** Profile: "root-root_tran10"  [ D:\cad\cadence\EED3009-PSpiceFiles\root\root_tran10.sim ] 


 ****     Junction FET MODEL PARAMETERS


******************************************************************************




               X_U1.JNEMOD     X_U3.JNEMOD     X_U5.JNEMOD     
               NJF             NJF             NJF             
         VTO   -2.5            -2.5            -2.5          
        BETA    5.120000E-06    5.120000E-06    5.120000E-06 


               X_out_signal_U3.JNEMOD 
               NJF             
         VTO   -2.5          
        BETA    5.120000E-06 


**** 12/04/22 21:19:23 ******* PSpice 17.4.0 (Nov 2018) ******* ID# 0 ********

 ** Profile: "root-root_tran10"  [ D:\cad\cadence\EED3009-PSpiceFiles\root\root_tran10.sim ] 


 ****     MOSFET MODEL PARAMETERS


******************************************************************************




               nnMOS           ppMOS           X_U1.PCHAN555   X_U1.NCHAN555   
               NMOS            PMOS            PMOS            NMOS            
       LEVEL    2               2               1               1            
           L  100.000000E-06  100.000000E-06  100.000000E-06  100.000000E-06 
           W  100.000000E-06  100.000000E-06  100.000000E-06  100.000000E-06 
         VTO    1.4            -1               -.2              .2          
          KP  600.000000E-06  600.000000E-06   20.000000E-06   20.000000E-06 
       GAMMA    0               0               0               0            
         PHI     .6              .6              .6              .6          
      LAMBDA    5.000000E-03     .01            0               0            
          IS   10.000000E-15   10.000000E-15   10.000000E-15   10.000000E-15 
          JS    0               0               0               0            
          PB     .8              .8              .8              .8          
        PBSW     .8              .8              .8              .8          
          CJ    0               0               0               0            
        CJSW    0               0               0               0            
        CGSO    0               0               1.000000E-12    1.000000E-12 
        CGDO    0               0               1.000000E-12    1.000000E-12 
        CGBO    0               0               1.000000E-12    1.000000E-12 
         TOX  100.000000E-09  100.000000E-09    0               0            
          XJ    0               0               0               0            
       UCRIT   10.000000E+03   10.000000E+03   10.000000E+03   10.000000E+03 
      DIOMOD    1               1               1               1            
         VFB    0               0               0               0            
        LETA    0               0               0               0            
        WETA    0               0               0               0            
          U0    0               0               0               0            
        TEMP    0               0               0               0            
         VDD    5               5               5               5            
       XPART    0               0               0               0            


               X_U1.PCHAN555_OUT               X_U3.PCHAN555   X_U3.NCHAN555   
               PMOS                            PMOS            NMOS            
       LEVEL    1                               1               1            
           L  100.000000E-06                  100.000000E-06  100.000000E-06 
           W  100.000000E-06                  100.000000E-06  100.000000E-06 
         VTO    -.2                             -.2              .2          
          KP   20.000000E-06                   20.000000E-06   20.000000E-06 
       GAMMA    0                               0               0            
         PHI     .6                              .6              .6          
      LAMBDA    0                               0               0            
          IS   10.000000E-15                   10.000000E-15   10.000000E-15 
          JS    0                               0               0            
          PB     .8                              .8              .8          
        PBSW     .8                              .8              .8          
         CBD  200.000000E-12                                                 
          CJ    0                               0               0            
        CJSW    0                               0               0            
        CGSO    1.000000E-12                    1.000000E-12    1.000000E-12 
        CGDO    1.000000E-12                    1.000000E-12    1.000000E-12 
        CGBO    1.000000E-12                    1.000000E-12    1.000000E-12 
         TOX    0                               0               0            
          XJ    0                               0               0            
       UCRIT   10.000000E+03                   10.000000E+03   10.000000E+03 
      DIOMOD    1                               1               1            
         VFB    0                               0               0            
        LETA    0                               0               0            
        WETA    0                               0               0            
          U0    0                               0               0            
        TEMP    0                               0               0            
         VDD    5                               5               5            
       XPART    0                               0               0            


               X_U3.PCHAN555_OUT               X_U5.PCHAN555   X_U5.NCHAN555   
               PMOS                            PMOS            NMOS            
       LEVEL    1                               1               1            
           L  100.000000E-06                  100.000000E-06  100.000000E-06 
           W  100.000000E-06                  100.000000E-06  100.000000E-06 
         VTO    -.2                             -.2              .2          
          KP   20.000000E-06                   20.000000E-06   20.000000E-06 
       GAMMA    0                               0               0            
         PHI     .6                              .6              .6          
      LAMBDA    0                               0               0            
          IS   10.000000E-15                   10.000000E-15   10.000000E-15 
          JS    0                               0               0            
          PB     .8                              .8              .8          
        PBSW     .8                              .8              .8          
         CBD  200.000000E-12                                                 
          CJ    0                               0               0            
        CJSW    0                               0               0            
        CGSO    1.000000E-12                    1.000000E-12    1.000000E-12 
        CGDO    1.000000E-12                    1.000000E-12    1.000000E-12 
        CGBO    1.000000E-12                    1.000000E-12    1.000000E-12 
         TOX    0                               0               0            
          XJ    0                               0               0            
       UCRIT   10.000000E+03                   10.000000E+03   10.000000E+03 
      DIOMOD    1                               1               1            
         VFB    0                               0               0            
        LETA    0                               0               0            
        WETA    0                               0               0            
          U0    0                               0               0            
        TEMP    0                               0               0            
         VDD    5                               5               5            
       XPART    0                               0               0            


               X_U5.PCHAN555_OUT 
               PMOS            
       LEVEL    1            
           L  100.000000E-06 
           W  100.000000E-06 
         VTO    -.2          
          KP   20.000000E-06 
       GAMMA    0            
         PHI     .6          
      LAMBDA    0            
          IS   10.000000E-15 
          JS    0            
          PB     .8          
        PBSW     .8          
         CBD  200.000000E-12 
          CJ    0            
        CJSW    0            
        CGSO    1.000000E-12 
        CGDO    1.000000E-12 
        CGBO    1.000000E-12 
         TOX    0            
          XJ    0            
       UCRIT   10.000000E+03 
      DIOMOD    1            
         VFB    0            
        LETA    0            
        WETA    0            
          U0    0            
        TEMP    0            
         VDD    5            
       XPART    0            


               X_out_signal_U3.PCHAN555 
               PMOS            
       LEVEL    1            
           L  100.000000E-06 
           W  100.000000E-06 
         VTO    -.2          
          KP   20.000000E-06 
       GAMMA    0            
         PHI     .6          
      LAMBDA    0            
          IS   10.000000E-15 
          JS    0            
          PB     .8          
        PBSW     .8          
          CJ    0            
        CJSW    0            
        CGSO    1.000000E-12 
        CGDO    1.000000E-12 
        CGBO    1.000000E-12 
         TOX    0            
          XJ    0            
       UCRIT   10.000000E+03 
      DIOMOD    1            
         VFB    0            
        LETA    0            
        WETA    0            
          U0    0            
        TEMP    0            
         VDD    5            
       XPART    0            


               X_out_signal_U3.NCHAN555 
               NMOS            
       LEVEL    1            
           L  100.000000E-06 
           W  100.000000E-06 
         VTO     .2          
          KP   20.000000E-06 
       GAMMA    0            
         PHI     .6          
      LAMBDA    0            
          IS   10.000000E-15 
          JS    0            
          PB     .8          
        PBSW     .8          
          CJ    0            
        CJSW    0            
        CGSO    1.000000E-12 
        CGDO    1.000000E-12 
        CGBO    1.000000E-12 
         TOX    0            
          XJ    0            
       UCRIT   10.000000E+03 
      DIOMOD    1            
         VFB    0            
        LETA    0            
        WETA    0            
          U0    0            
        TEMP    0            
         VDD    5            
       XPART    0            


               X_out_signal_U3.PCHAN555_OUT 
               PMOS            
       LEVEL    1            
           L  100.000000E-06 
           W  100.000000E-06 
         VTO    -.2          
          KP   20.000000E-06 
       GAMMA    0            
         PHI     .6          
      LAMBDA    0            
          IS   10.000000E-15 
          JS    0            
          PB     .8          
        PBSW     .8          
         CBD  200.000000E-12 
          CJ    0            
        CJSW    0            
        CGSO    1.000000E-12 
        CGDO    1.000000E-12 
        CGBO    1.000000E-12 
         TOX    0            
          XJ    0            
       UCRIT   10.000000E+03 
      DIOMOD    1            
         VFB    0            
        LETA    0            
        WETA    0            
          U0    0            
        TEMP    0            
         VDD    5            
       XPART    0            


**** 12/04/22 21:19:23 ******* PSpice 17.4.0 (Nov 2018) ******* ID# 0 ********

 ** Profile: "root-root_tran10"  [ D:\cad\cadence\EED3009-PSpiceFiles\root\root_tran10.sim ] 


 ****     Voltage Controlled Switch MODEL PARAMETERS


******************************************************************************




               X_U6.x1.Sbg1    
         RON    1            
        ROFF    1.000000E+06 
         VON    3.7          
        VOFF    3            


**** 12/04/22 21:19:23 ******* PSpice 17.4.0 (Nov 2018) ******* ID# 0 ********

 ** Profile: "root-root_tran10"  [ D:\cad\cadence\EED3009-PSpiceFiles\root\root_tran10.sim ] 


 ****     Digital Input MODEL PARAMETERS


******************************************************************************




               DIN74           DIN74HC         
      S0NAME 0               0               
       S0TSW    3.500000E-09    5.000000E-09 
       S0RLO    7.13            1            
       S0RHI  389             100.000000E+03 
      S1NAME 1               1               
       S1TSW    5.500000E-09    5.000000E-09 
       S1RLO  467             100.000000E+03 
       S1RHI  200               1            
      S2NAME X               X               
       S2TSW    3.500000E-09    5.000000E-09 
       S2RLO   42.9           110            
       S2RHI  116             100            
      S3NAME R               R               
       S3TSW    3.500000E-09    5.000000E-09 
       S3RLO   42.9           110            
       S3RHI  116             100            
      S4NAME F               F               
       S4TSW    3.500000E-09    5.000000E-09 
       S4RLO   42.9           110            
       S4RHI  116             100            
      S5NAME Z               Z               
       S5TSW    3.500000E-09    5.000000E-09 
       S5RLO  200.000000E+03  200.000000E+03 
       S5RHI  200.000000E+03  200.000000E+03 


**** 12/04/22 21:19:23 ******* PSpice 17.4.0 (Nov 2018) ******* ID# 0 ********

 ** Profile: "root-root_tran10"  [ D:\cad\cadence\EED3009-PSpiceFiles\root\root_tran10.sim ] 


 ****     Digital Output MODEL PARAMETERS


******************************************************************************




               DO74            DO74HC_ST       DO4000B         
    TIMESTEP  100.000000E-12  100.000000E-12  100.000000E-12 
      S0NAME X               0               X               
       S0VHI    2                .55             .5          
       S0VLO     .8            -1.3             -.5          
      S1NAME 0               1               0               
       S1VHI     .8             1.3             -.5          
       S1VLO   -1.5              .33           -3            
      S2NAME R                               R               
       S2VHI    1.4                              .05         
       S2VLO     .8                             -.5          
      S3NAME R                               R               
       S3VHI    2                                .5          
       S3VLO    1.3                             -.05         
      S4NAME X                               X               
       S4VHI    2                                .5          
       S4VLO     .8                             -.5          
      S5NAME 1                               1               
       S5VHI    7                               3            
       S5VLO    2                                .5          
      S6NAME F                               F               
       S6VHI    2                                .5          
       S6VLO    1.3                             -.05         
      S7NAME F                               F               
       S7VHI    1.4                              .05         
       S7VLO     .8                             -.5          


**** 12/04/22 21:19:23 ******* PSpice 17.4.0 (Nov 2018) ******* ID# 0 ********

 ** Profile: "root-root_tran10"  [ D:\cad\cadence\EED3009-PSpiceFiles\root\root_tran10.sim ] 


 ****     Digital Gate MODEL PARAMETERS


******************************************************************************




               D_HC14          D0_GATE         D_PLD_GATE      
      TPLHMN    4.800000E-09    0               0            
      TPLHTY   12.000000E-09    0               0            
      TPLHMX   31.000000E-09    0               0            
      TPHLMN    4.800000E-09    0               0            
      TPHLTY   12.000000E-09    0               0            
      TPHLMX   31.000000E-09    0               0            


**** 12/04/22 21:19:23 ******* PSpice 17.4.0 (Nov 2018) ******* ID# 0 ********

 ** Profile: "root-root_tran10"  [ D:\cad\cadence\EED3009-PSpiceFiles\root\root_tran10.sim ] 


 ****     Digital Edge Triggered FF MODEL PARAMETERS


******************************************************************************




               D0_EFF          D_PLD_EFF       
  TPCLKQLHMN    0               0            
  TPCLKQLHTY    0               0            
  TPCLKQLHMX    0               0            
  TPCLKQHLMN    0               0            
  TPCLKQHLTY    0               0            
  TPCLKQHLMX    0               0            
   TPPCQLHMN    0               0            
   TPPCQLHTY    0               0            
   TPPCQLHMX    0               0            
   TPPCQHLMN    0               0            
   TPPCQHLTY    0               0            
   TPPCQHLMX    0               0            
    TWCLKLMN    0               0            
    TWCLKLTY    0               0            
    TWCLKLMX    0               0            
    TWCLKHMN    0               0            
    TWCLKHTY    0               0            
    TWCLKHMX    0               0            
     TWPCLMN    0               0            
     TWPCLTY    0               0            
     TWPCLMX    0               0            
   TSUDCLKMN    0               0            
   TSUDCLKTY    0               0            
   TSUDCLKMX    0               0            
 TSUPCCLKHMN    0               0            
 TSUPCCLKHTY    0               0            
 TSUPCCLKHMX    0               0            
    THDCLKMN    0               0            
    THDCLKTY    0               0            
    THDCLKMX    0               0            
  TSUCECLKMN    0               0            
  TSUCECLKTY    0               0            
  TSUCECLKMX    0               0            
   THCECLKMN    0               0            
   THCECLKTY    0               0            
   THCECLKMX    0               0            


**** 12/04/22 21:19:23 ******* PSpice 17.4.0 (Nov 2018) ******* ID# 0 ********

 ** Profile: "root-root_tran10"  [ D:\cad\cadence\EED3009-PSpiceFiles\root\root_tran10.sim ] 


 ****     Digital IO  MODEL PARAMETERS


******************************************************************************




               IO_STM          IO_HC_ST        IO_4000B        IO_PLD          
        INLD                    3.500000E-12                                 
        DRVL    0              87               1.443000E+03                 
        DRVH    0              87               1.443000E+03                 
       AtoD1                 AtoD_HC_ST      AtoD_4000B                      
       AtoD2                 AtoD_HC_ST      AtoD_4000B_NX                   
       AtoD3                 AtoD_HC_ST      AtoD_4000B                      
       AtoD4                 AtoD_HC_ST      AtoD_4000B_NX                   
       DtoA1 DtoA_STM        DtoA_HC         DtoA_4000B                      
       DtoA2 DtoA_STM        DtoA_HC         DtoA_4000B                      
       DtoA3 DtoA_STM        DtoA_HC_E       DtoA_4000B                      
       DtoA4 DtoA_STM        DtoA_HC_E       DtoA_4000B                      
    DIGPOWER                                 CD4000_PWR                      
      TSWHL1                    2.742000E-09    7.720000E-09                 
      TSWHL2                    2.742000E-09    7.860000E-09                 
      TSWHL3                    2.751000E-09    9.710000E-09                 
      TSWHL4                    2.751000E-09    9.630000E-09                 
      TSWLH1                    2.758000E-09    7.560000E-09                 
      TSWLH2                    2.758000E-09    7.400000E-09                 
      TSWLH3                    2.763000E-09    9.410000E-09                 
      TSWLH4                    2.763000E-09    9.240000E-09                 
       TPWRT  100.000000E+03    2.000000E-09  100.000000E+03  100.000000E+03 


               IO_DFT          IO_HC           IO_HC_DTOA      
        INLD                    3.500000E-12                 
        DRVL                   87                            
        DRVH                   87                            
       AtoD1 AtoD_STD        AtoD_HC                         
       AtoD2 AtoD_STD_NX     AtoD_HC_NX                      
       AtoD3 AtoD_STD        AtoD_HC                         
       AtoD4 AtoD_STD_NX     AtoD_HC_NX                      
       DtoA1 DtoA_STD        DtoA_HC                         
       DtoA2 DtoA_STD        DtoA_HC                         
       DtoA3 DtoA_STD        DtoA_HC_E                       
       DtoA4 DtoA_STD        DtoA_HC_E                       
      TSWHL1                    2.742000E-09                 
      TSWHL2                    2.742000E-09                 
      TSWHL3                    2.751000E-09                 
      TSWHL4                    2.751000E-09                 
      TSWLH1                    2.758000E-09                 
      TSWLH2                    2.758000E-09                 
      TSWLH3                    2.763000E-09                 
      TSWLH4                    2.763000E-09                 
       TPWRT  100.000000E+03    2.000000E-09  100.000000E+03 


ERROR(ORPSIM-15413): Transient Stop time 0.013 s is less than Print Start time 0.027 s.


ABORTING SIMULATION
**** 12/04/22 21:19:23 ******* PSpice 17.4.0 (Nov 2018) ******* ID# 0 ********

 ** Profile: "root-root_tran10"  [ D:\cad\cadence\EED3009-PSpiceFiles\root\root_tran10.sim ] 


 ****     JOB STATISTICS SUMMARY


******************************************************************************



Node counts:
  Top level (NUNODS)                =          36
  External (NCNODS)                 =         227
  Total (NUMNOD)                    =         255

Total device count (NUMEL)          =         422
  Capacitors (C)                    =          22
  Diodes (D)                        =          24
  VCVS (E)                          =          33
  CCCS (F)                          =           2
  VCCS (G)                          =           7
  Current Sources (I)               =           2
  JFETs (J)                         =           4
  MosFETs (M)                       =         138
  Dig. Inputs (N)                   =           3
  Dig. Outputs (O)                  =           6
  BJTs (Q)                          =          13
  Resistors (R)                     =         104
  VSwitches (S)                     =           1
  Dig. Devices (U)                  =          39
  Voltage Sources (V)               =          24

Number of subcircuits (X)           =          50

Matrix statistics:
  Matrix size (NSTOP)               =         326
  Initial no. elements (NTTAR)      =        1340
  No. elements w/ fillin (NTTBR)    =        1340
  No. fillins (IFILL)               =           0
  No. overflows (NTTOV)             =           0
  No. LU operations (IOPS)          =           0
  Percent sparsity (PERSPA)         =      98.739

Analysis statistics:
  No. total time points (NUMTTP)    =           0
  No. rejected time points (NUMRTP) =           0
  No. iterations (NUMNIT)           =           0
  No. digital nets (DIGNET)         =          85
  No. next time evals (DIGTP)       =           0
  No. events (DIGEVT)               =           0
  No. device evals (DIGEVL)         =           0

Load Threads                        =           1

Runtime statistics:                       Seconds      Iterations
  Matrix load                       =        0.00
  Matrix solution                   =        0.00               1
  Digital simulation                =        0.00
  Readin                            =         .03
  General setup                     =        0.00
  CMI setup                     =        0.00
  Setup                             =        0.00
  DC sweep                          =        0.00               0
  Bias point                        =        0.00               0
  AC and noise                      =        0.00               0
  Total transient analysis          =        0.00
  Output                            =        0.00
  Overhead                          =         .05
  Total job time (using Solver 1)   =         .03
