
**** 12/18/22 17:13:58 ******* PSpice 17.4.0 (Nov 2018) ******* ID# 0 ********

 ** Profile: "root-root_tran11"  [ D:\cad\cadence\EED3009\eed3009-pspicefiles\root\root_tran11.sim ] 


 ****     CIRCUIT DESCRIPTION


******************************************************************************




** Creating circuit file "root_tran11.cir" 
** WARNING: THIS AUTOMATICALLY GENERATED FILE MAY BE OVERWRITTEN BY SUBSEQUENT SIMULATIONS

*Libraries: 
* Profile Libraries :
* Local Libraries :
.INC "C:/Users/Abdurrahman/Desktop/cd4007/cd4007.lib" 
* From [PSPICE NETLIST] section of D:\cad\cadence\cdssetup\OrCAD_PSpice\17.4.0\PSpice.ini file:

**** INCLUDING cd4007.lib ****
.model nnMOS NMOS (LEVEL=2 VTo=1.4 Kp=.6m LAMBDA=0.005)
.model ppMOS PMOS (LEVEL=2 VTo=-1.0 KP=.6m LAMBDA=0.01)

**** RESUMING root_tran11.cir ****
.lib "nom.lib" 

*Analysis directives: 
.TRAN  0 30ms 0 
.OPTIONS ADVCONV
.OPTIONS ABSTOL= 1.0n
.OPTIONS CHGTOL= 0.1p
.OPTIONS DIGINITSTATE= 0
.OPTIONS GMIN= 1.0E-9
.PROBE64 V(alias(*)) I(alias(*)) W(alias(*)) D(alias(*)) NOISE(alias(*)) 
.INC "..\root.net" 



**** INCLUDING root.net ****
* source EED3009
C_C_eq         N293890 VO-  1.82nF  TC=0,0 
M_M4         VO+ SOUND VDD VDD ppMOS           
M_M3         VO+ SOUND 0 0 nnMOS           
R_R21         N29217 VDD  1k TC=0,0 
R_R12         N29991 N29853  3.6k TC=0,0 
C_C21         0 N29421  330pF IC=-1.65V TC=0,0 
X_U1         0 N29991 N29999 VDD N30031 N29991 N29853 VDD 555C
M_M6         VO- /SOUND VDD VDD ppMOS           
X_U2A         N29999 TRANSMIT $G_DPWR $G_DGND 74HC14 PARAMS:
+ IO_LEVEL=0 MNTYMXDLY=0
M_M1         /SOUND SOUND 0 0 nnMOS           
X_U3         0 N29421 SOUND TRANSMIT N29551 N29421 N29217 VDD 555C
M_M2         /SOUND SOUND VDD VDD ppMOS           
C_C12         0 N30031  10n  TC=0,0 
C_C22         0 N29551  10n  TC=0,0 
M_M5         VO- /SOUND 0 0 nnMOS           
R_R_esr         VO+ N293890  10 TC=0,0 
C_C11         0 N29991  100nF IC=-1.65V TC=0,0 
X_CD4026_1_U3         CD4026_1_N004852 C_CLK N32613 M_UN0001 $G_DPWR $G_DGND
+  DFF
X_CD4026_1_U2         N32655 N32667 CD4026_1_N004852  $G_DPWR $G_DGND AND2
X_CD4026_1_U1A         C_CLK N32753 $D_HI N32655 N32659 N32663 N32667
+  $G_CD4000_VDD $G_CD4000_VSS CD4518B PARAMS:
+ IO_LEVEL=0 MNTYMXDLY=0
X_CD4026_2_U3         CD4026_2_N004852 N32613 N84729 M_UN0002 $G_DPWR $G_DGND
+  DFF
X_CD4026_2_U2         N32671 N32683 CD4026_2_N004852  $G_DPWR $G_DGND AND2
X_CD4026_2_U1A         N32613 N32753 $D_HI N32671 N32675 N32679 N32683
+  $G_CD4000_VDD $G_CD4000_VSS CD4518B PARAMS:
+ IO_LEVEL=0 MNTYMXDLY=0
C_C51         0 N74666  1nF IC=-1.65V TC=0,0 
C_C52         0 N74696  10n  TC=0,0 
X_U5         0 N74666 C_CLK VDD N74696 N74666 N74582 VDD 555C
C_C62         0 VDD  0.1uF  TC=0,0 
C_C61         0 N86762  0.33pF  TC=0,0 
X_U6         N86762 VDD 0 LM7805C
V_V1         N86762 0 9V
R_R73         N97606 N97476  1k TC=0,0 
X_U7B         N98046 VLP VLP VDD 0 awblm358 PARAMS: AVOL=1E+5 VOS=2E-3 GBW=1E+6
+  IBOS=5E-9 IB=45E-9 CMRR=3.16228E+3 PSRR=1E+5 SR=0.5E+6 ISOURCE=40E-3 VPDIF=1
R_R71         N97606 VDD  10k TC=0,0 
C_C71         ECHO_A N97606  1uF IC=-2.50V TC=0,0 
R_R83         VPC VDD  1k TC=0,0 
R_R105         0 N98078  30k TC=0,0 
X_U8A         N97556 REF_2V5 VDD 0 VPC LM393
R_R102         N97588 ECHO_D  40k TC=0,0 
R_R81         VPA N97556  10k TC=0,0 
R_R61         REF_2V5 VDD  10k TC=0,0 
R_R91         VPC N98046  33k TC=0,0 
R_R103         ECHO_D VDD  1k TC=0,0 
R_R104         N98078 VDD  20k TC=0,0 
C_C91         0 N98046  1n  TC=0,0 
R_R72         0 N97606  10k TC=0,0 
R_R101         VLP N97588  10k TC=0,0 
X_U8B         N97588 N98078 VDD 0 ECHO_D LM393
R_R82         N97556 VPC  100k TC=0,0 
R_R74         N97476 VPA  22k TC=0,0 
X_U7A         REF_2V5 N97476 VPA VDD 0 awblm358 PARAMS: AVOL=1E+5 VOS=2E-3
+  GBW=1E+6 IBOS=5E-9 IB=45E-9 CMRR=3.16228E+3 PSRR=1E+5 SR=0.5E+6 ISOURCE=40E-3
+  VPDIF=1
C_C64         0 REF_2V5  100uF  TC=0,0 
R_R62         0 REF_2V5  10k TC=0,0 
C_C63         REF_2V5 VDD  100uF  TC=0,0 
R_R11         N29853 VDD  91k TC=0,0 
R_R22         N29217 N29421  54.66k TC=0,0 
R_R3         N130528 N130552  100k TC=0,0 
C_C1         N1304641 N130528  300p  TC=0,0 
V_V3         N130552 0 2.5V
C_out_signal_C22         0 out_signal_N123881  10n  TC=0,0 
R_out_signal_R22         out_signal_N123613 out_signal_N123785  54.66k TC=0,0 
X_out_signal_U3         0 out_signal_N123785 N1304641 N130514
+  out_signal_N123881 out_signal_N123785 out_signal_N123613 VDD 555C
R_out_signal_R21         out_signal_N123613 VDD  1k TC=0,0 
C_out_signal_C21         0 out_signal_N123785  330pF IC=-1.65V TC=0,0 
R_R1         N130630 ECHO_A  100k TC=0,0 
E_E1         N130542 0 N130528 N130552 0.1
U_DSTM1         STIM(1,1) $G_DPWR $G_DGND N131716 IO_STM IO_LEVEL=0 
+ 0 0
+ +145us 1
+REPEAT FOREVER
+ +145us 0
+  +145us 1
+ ENDREPEAT
X_delaydd_U6         delaydd_N00908 N131716 delaydd_N00912 M_UN0003 VDD 0 DFF
X_delaydd_U5         delaydd_N00904 N131716 delaydd_N00908 M_UN0004 VDD 0 DFF
X_delaydd_U10         delaydd_N00924 N131716 N130514 0 VDD 0 DFF
X_delaydd_U9         delaydd_N00920 N131716 delaydd_N00924 M_UN0005 VDD 0 DFF
X_delaydd_U4         delaydd_N00900 N131716 delaydd_N00904 M_UN0006 VDD 0 DFF
X_delaydd_U3         delaydd_N00896 N131716 delaydd_N00900 M_UN0007 VDD 0 DFF
X_delaydd_U1         TRANSMIT N131716 delaydd_N00892 M_UN0008 VDD 0 DFF
X_delaydd_U8         delaydd_N00916 N131716 delaydd_N00920 M_UN0009 VDD 0 DFF
X_delaydd_U2         delaydd_N00892 N131716 delaydd_N00896 M_UN0010 VDD 0 DFF
X_delaydd_U7         delaydd_N00912 N131716 delaydd_N00916 M_UN0011 VDD 0 DFF
X_U9         N142057 TRANSMIT N142021 $G_DPWR $G_DGND OR2
X_U10         ECHO_D N142057  $G_DPWR $G_DGND INV
X_U11A         $D_HI N32753 N142021 $D_HI M_UN0012 N32753 $G_DPWR $G_DGND 7474
+  PARAMS:
+ IO_LEVEL=0 MNTYMXDLY=0
R_R52         N74582 N74666  18.57k TC=0,0 
R_R51         N74582 VDD  47k TC=0,0 
R_R106         ECHO_A N130542  1k TC=0,0 
X_V4         N130630 0 VRNDMN PARAMS: NVAL=5

**** RESUMING root_tran11.cir ****
.END


**** Generated AtoD and DtoA Interfaces ****

*
* Analog/Digital interface for node 0
*
* Moving X_delaydd_U10.U1:QBAR1 from analog node 0 to new digital node 0$DtoA
X$0_DtoA1
+ 0$DtoA
+ 0
+ VDD
+ 0
+ DtoAdefault
+       PARAMS: DRVH=  50     DRVL=  50     CAPACITANCE=   0     
*
* Analog/Digital interface for node ECHO_D
*
* Moving X_U10.U1:IN1 from analog node ECHO_D to new digital node ECHO_D$AtoD
X$ECHO_D_AtoD1
+ ECHO_D
+ ECHO_D$AtoD
+ $G_DPWR
+ $G_DGND
+ AtoDdefault
+       PARAMS: CAPACITANCE=   0     
*
* Analog/Digital interface for node N29999
*
* Moving X_U2A.U1:IN1 from analog node N29999 to new digital node N29999$AtoD
X$N29999_AtoD1
+ N29999
+ N29999$AtoD
+ $G_DPWR
+ $G_DGND
+ AtoD_HC_ST
+       PARAMS: CAPACITANCE=   3.5000E-12
*
* Analog/Digital interface for node TRANSMIT
*
* Moving X_U9.U1:IN2 from analog node TRANSMIT to new digital node TRANSMIT$AtoD
X$TRANSMIT_AtoD1
+ TRANSMIT
+ TRANSMIT$AtoD
+ $G_DPWR
+ $G_DGND
+ AtoDdefault
+       PARAMS: CAPACITANCE=   0     
* Moving X_delaydd_U1.U1:D1 from analog node TRANSMIT to new digital node TRANSMIT$AtoD2
X$TRANSMIT_AtoD2
+ TRANSMIT
+ TRANSMIT$AtoD2
+ VDD
+ 0
+ AtoDdefault
+       PARAMS: CAPACITANCE=   0     
* Moving X_U2A.U1:OUT1 from analog node TRANSMIT to new digital node TRANSMIT$DtoA
X$TRANSMIT_DtoA1
+ TRANSMIT$DtoA
+ TRANSMIT
+ $G_DPWR
+ $G_DGND
+ DtoA_HC
+       PARAMS: DRVH=  87     DRVL=  87     CAPACITANCE=   0     
*
* Analog/Digital interface for node C_CLK
*
* Moving X_CD4026_1_U1A.UCD4518BLOG:IN1 from analog node C_CLK to new digital node C_CLK$AtoD
X$C_CLK_AtoD1
+ C_CLK
+ C_CLK$AtoD
+ $G_CD4000_VDD
+ $G_CD4000_VSS
+ AtoD_4000B
+       PARAMS: CAPACITANCE=   0     
* Moving X_CD4026_1_U3.U1:CLK from analog node C_CLK to new digital node C_CLK$AtoD2
X$C_CLK_AtoD2
+ C_CLK
+ C_CLK$AtoD2
+ $G_DPWR
+ $G_DGND
+ AtoDdefault
+       PARAMS: CAPACITANCE=   0     
*
* Analog/Digital interface for node N130514
*
* Moving X_delaydd_U10.U1:Q1 from analog node N130514 to new digital node N130514$DtoA
X$N130514_DtoA1
+ N130514$DtoA
+ N130514
+ VDD
+ 0
+ DtoAdefault
+       PARAMS: DRVH=  50     DRVL=  50     CAPACITANCE=   0     
*
* Analog/Digital interface power supply subcircuits
*
X$CD4000_PWR 0 CD4000_PWR
X$DIGIFPWR 0 DIGIFPWR


**** 12/18/22 17:13:58 ******* PSpice 17.4.0 (Nov 2018) ******* ID# 0 ********

 ** Profile: "root-root_tran11"  [ D:\cad\cadence\EED3009\eed3009-pspicefiles\root\root_tran11.sim ] 


 ****     Diode MODEL PARAMETERS


******************************************************************************




               X_U1.DIODE      X_U3.DIODE      X_U5.DIODE      
          IS   10.000000E-15   10.000000E-15   10.000000E-15 
          RS     .01             .01             .01         


               X_out_signal_U3.DIODE           X_U6.x1.Dlim    X_U6.x1.Dz      
          IS   10.000000E-15                   10.000000E-15   50.000000E-15 
          BV                    7.11         
         IBV                   50.000000E-09 
          RS     .01                                            3            
          VJ     .7                          


               X_U8A.x_lm393.dx 
          IS  800.000000E-18 
          RS    1            


               X_U8B.x_lm393.dx                D74CLMP         
          IS  800.000000E-18                    1.000000E-15 
          RS    1                               2            
         CJO    2.000000E-12 


**** 12/18/22 17:13:58 ******* PSpice 17.4.0 (Nov 2018) ******* ID# 0 ********

 ** Profile: "root-root_tran11"  [ D:\cad\cadence\EED3009\eed3009-pspicefiles\root\root_tran11.sim ] 


 ****     BJT MODEL PARAMETERS


******************************************************************************




               X_U6.x1.Npn1    X_U8A.x_lm393.qin 
               NPN             PNP             
       LEVEL    1               1            
          IS   10.000000E-15  800.000000E-18 
          BF   50               2.000000E+03 
          NF    1               1            
          BR    1               1            
          NR    1               1            
         ISS    0               0            
          RE    0               0            
          RC    0               0            
         CJE    0               0            
         VJE     .75             .75         
         CJC    0               0            
         VJC     .75             .75         
         MJC     .33             .33         
        XCJC    1               1            
         CJS    0               0            
         VJS     .75             .75         
          KF    0               0            
          AF    1               1            
          CN    2.42            2.2          
           D     .87             .52         


               X_U8A.x_lm393.qmi 
               NPN             
       LEVEL    1            
          IS  800.000000E-18 
          BF    1.002000E+03 
          NF    1            
          BR    1            
          NR    1            
         ISS    0            
          RE    0            
          RC    0            
         CJE    0            
         VJE     .75         
         CJC    0            
         VJC     .75         
         MJC     .33         
        XCJC    1            
         CJS    0            
         VJS     .75         
          KF    0            
          AF    1            
          CN    2.42         
           D     .87         


               X_U8A.x_lm393.qmo 
               NPN             
       LEVEL    1            
          IS  800.000000E-18 
          BF    1.000000E+03 
          NF    1            
          BR    1            
          NR    1            
         ISS    0            
          RE    0            
          RC    0            
         CJE    0            
         VJE     .75         
         CJC    1.000000E-15 
         VJC     .75         
         MJC     .33         
        XCJC    1            
         CJS    0            
         VJS     .75         
          TR  475.400000E-09 
          KF    0            
          AF    1            
          CN    2.42         
           D     .87         


               X_U8A.x_lm393.qoc 
               NPN             
       LEVEL    1            
          IS  800.000000E-18 
          BF   20.690000E+03 
          NF    1            
          BR    1            
          NR    1            
         ISS    0            
          RE    0            
          RC    0            
         CJE    0            
         VJE     .75         
         CJC    1.000000E-15 
         VJC     .75         
         MJC     .33         
        XCJC    1            
         CJS    0            
         VJS     .75         
          TF    3.540000E-09 
          TR  472.800000E-09 
          KF    0            
          AF    1            
          CN    2.42         
           D     .87         


               X_U8B.x_lm393.qin 
               PNP             
       LEVEL    1            
          IS  800.000000E-18 
          BF    2.000000E+03 
          NF    1            
          BR    1            
          NR    1            
         ISS    0            
          RE    0            
          RC    0            
         CJE    0            
         VJE     .75         
         CJC    0            
         VJC     .75         
         MJC     .33         
        XCJC    1            
         CJS    0            
         VJS     .75         
          KF    0            
          AF    1            
          CN    2.2          
           D     .52         


               X_U8B.x_lm393.qmi 
               NPN             
       LEVEL    1            
          IS  800.000000E-18 
          BF    1.002000E+03 
          NF    1            
          BR    1            
          NR    1            
         ISS    0            
          RE    0            
          RC    0            
         CJE    0            
         VJE     .75         
         CJC    0            
         VJC     .75         
         MJC     .33         
        XCJC    1            
         CJS    0            
         VJS     .75         
          KF    0            
          AF    1            
          CN    2.42         
           D     .87         


               X_U8B.x_lm393.qmo 
               NPN             
       LEVEL    1            
          IS  800.000000E-18 
          BF    1.000000E+03 
          NF    1            
          BR    1            
          NR    1            
         ISS    0            
          RE    0            
          RC    0            
         CJE    0            
         VJE     .75         
         CJC    1.000000E-15 
         VJC     .75         
         MJC     .33         
        XCJC    1            
         CJS    0            
         VJS     .75         
          TR  475.400000E-09 
          KF    0            
          AF    1            
          CN    2.42         
           D     .87         


               X_U8B.x_lm393.qoc 
               NPN             
       LEVEL    1            
          IS  800.000000E-18 
          BF   20.690000E+03 
          NF    1            
          BR    1            
          NR    1            
         ISS    0            
          RE    0            
          RC    0            
         CJE    0            
         VJE     .75         
         CJC    1.000000E-15 
         VJC     .75         
         MJC     .33         
        XCJC    1            
         CJS    0            
         VJS     .75         
          TF    3.540000E-09 
          TR  472.800000E-09 
          KF    0            
          AF    1            
          CN    2.42         
           D     .87         


**** 12/18/22 17:13:58 ******* PSpice 17.4.0 (Nov 2018) ******* ID# 0 ********

 ** Profile: "root-root_tran11"  [ D:\cad\cadence\EED3009\eed3009-pspicefiles\root\root_tran11.sim ] 


 ****     Junction FET MODEL PARAMETERS


******************************************************************************




               X_U1.JNEMOD     X_U3.JNEMOD     X_U5.JNEMOD     
               NJF             NJF             NJF             
         VTO   -2.5            -2.5            -2.5          
        BETA    5.120000E-06    5.120000E-06    5.120000E-06 


               X_out_signal_U3.JNEMOD 
               NJF             
         VTO   -2.5          
        BETA    5.120000E-06 


**** 12/18/22 17:13:58 ******* PSpice 17.4.0 (Nov 2018) ******* ID# 0 ********

 ** Profile: "root-root_tran11"  [ D:\cad\cadence\EED3009\eed3009-pspicefiles\root\root_tran11.sim ] 


 ****     MOSFET MODEL PARAMETERS


******************************************************************************




               nnMOS           ppMOS           X_U1.PCHAN555   X_U1.NCHAN555   
               NMOS            PMOS            PMOS            NMOS            
       LEVEL    2               2               1               1            
           L  100.000000E-06  100.000000E-06  100.000000E-06  100.000000E-06 
           W  100.000000E-06  100.000000E-06  100.000000E-06  100.000000E-06 
         VTO    1.4            -1               -.2              .2          
          KP  600.000000E-06  600.000000E-06   20.000000E-06   20.000000E-06 
       GAMMA    0               0               0               0            
         PHI     .6              .6              .6              .6          
      LAMBDA    5.000000E-03     .01            0               0            
          IS   10.000000E-15   10.000000E-15   10.000000E-15   10.000000E-15 
          JS    0               0               0               0            
          PB     .8              .8              .8              .8          
        PBSW     .8              .8              .8              .8          
          CJ    0               0               0               0            
        CJSW    0               0               0               0            
        CGSO    0               0               1.000000E-12    1.000000E-12 
        CGDO    0               0               1.000000E-12    1.000000E-12 
        CGBO    0               0               1.000000E-12    1.000000E-12 
         TOX  100.000000E-09  100.000000E-09    0               0            
          XJ    0               0               0               0            
       UCRIT   10.000000E+03   10.000000E+03   10.000000E+03   10.000000E+03 
      DIOMOD    1               1               1               1            
         VFB    0               0               0               0            
        LETA    0               0               0               0            
        WETA    0               0               0               0            
          U0    0               0               0               0            
        TEMP    0               0               0               0            
         VDD    5               5               5               5            
       XPART    0               0               0               0            


               X_U1.PCHAN555_OUT               X_U3.PCHAN555   X_U3.NCHAN555   
               PMOS                            PMOS            NMOS            
       LEVEL    1                               1               1            
           L  100.000000E-06                  100.000000E-06  100.000000E-06 
           W  100.000000E-06                  100.000000E-06  100.000000E-06 
         VTO    -.2                             -.2              .2          
          KP   20.000000E-06                   20.000000E-06   20.000000E-06 
       GAMMA    0                               0               0            
         PHI     .6                              .6              .6          
      LAMBDA    0                               0               0            
          IS   10.000000E-15                   10.000000E-15   10.000000E-15 
          JS    0                               0               0            
          PB     .8                              .8              .8          
        PBSW     .8                              .8              .8          
         CBD  200.000000E-12                                                 
          CJ    0                               0               0            
        CJSW    0                               0               0            
        CGSO    1.000000E-12                    1.000000E-12    1.000000E-12 
        CGDO    1.000000E-12                    1.000000E-12    1.000000E-12 
        CGBO    1.000000E-12                    1.000000E-12    1.000000E-12 
         TOX    0                               0               0            
          XJ    0                               0               0            
       UCRIT   10.000000E+03                   10.000000E+03   10.000000E+03 
      DIOMOD    1                               1               1            
         VFB    0                               0               0            
        LETA    0                               0               0            
        WETA    0                               0               0            
          U0    0                               0               0            
        TEMP    0                               0               0            
         VDD    5                               5               5            
       XPART    0                               0               0            


               X_U3.PCHAN555_OUT               X_U5.PCHAN555   X_U5.NCHAN555   
               PMOS                            PMOS            NMOS            
       LEVEL    1                               1               1            
           L  100.000000E-06                  100.000000E-06  100.000000E-06 
           W  100.000000E-06                  100.000000E-06  100.000000E-06 
         VTO    -.2                             -.2              .2          
          KP   20.000000E-06                   20.000000E-06   20.000000E-06 
       GAMMA    0                               0               0            
         PHI     .6                              .6              .6          
      LAMBDA    0                               0               0            
          IS   10.000000E-15                   10.000000E-15   10.000000E-15 
          JS    0                               0               0            
          PB     .8                              .8              .8          
        PBSW     .8                              .8              .8          
         CBD  200.000000E-12                                                 
          CJ    0                               0               0            
        CJSW    0                               0               0            
        CGSO    1.000000E-12                    1.000000E-12    1.000000E-12 
        CGDO    1.000000E-12                    1.000000E-12    1.000000E-12 
        CGBO    1.000000E-12                    1.000000E-12    1.000000E-12 
         TOX    0                               0               0            
          XJ    0                               0               0            
       UCRIT   10.000000E+03                   10.000000E+03   10.000000E+03 
      DIOMOD    1                               1               1            
         VFB    0                               0               0            
        LETA    0                               0               0            
        WETA    0                               0               0            
          U0    0                               0               0            
        TEMP    0                               0               0            
         VDD    5                               5               5            
       XPART    0                               0               0            


               X_U5.PCHAN555_OUT 
               PMOS            
       LEVEL    1            
           L  100.000000E-06 
           W  100.000000E-06 
         VTO    -.2          
          KP   20.000000E-06 
       GAMMA    0            
         PHI     .6          
      LAMBDA    0            
          IS   10.000000E-15 
          JS    0            
          PB     .8          
        PBSW     .8          
         CBD  200.000000E-12 
          CJ    0            
        CJSW    0            
        CGSO    1.000000E-12 
        CGDO    1.000000E-12 
        CGBO    1.000000E-12 
         TOX    0            
          XJ    0            
       UCRIT   10.000000E+03 
      DIOMOD    1            
         VFB    0            
        LETA    0            
        WETA    0            
          U0    0            
        TEMP    0            
         VDD    5            
       XPART    0            


               X_out_signal_U3.PCHAN555 
               PMOS            
       LEVEL    1            
           L  100.000000E-06 
           W  100.000000E-06 
         VTO    -.2          
          KP   20.000000E-06 
       GAMMA    0            
         PHI     .6          
      LAMBDA    0            
          IS   10.000000E-15 
          JS    0            
          PB     .8          
        PBSW     .8          
          CJ    0            
        CJSW    0            
        CGSO    1.000000E-12 
        CGDO    1.000000E-12 
        CGBO    1.000000E-12 
         TOX    0            
          XJ    0            
       UCRIT   10.000000E+03 
      DIOMOD    1            
         VFB    0            
        LETA    0            
        WETA    0            
          U0    0            
        TEMP    0            
         VDD    5            
       XPART    0            


               X_out_signal_U3.NCHAN555 
               NMOS            
       LEVEL    1            
           L  100.000000E-06 
           W  100.000000E-06 
         VTO     .2          
          KP   20.000000E-06 
       GAMMA    0            
         PHI     .6          
      LAMBDA    0            
          IS   10.000000E-15 
          JS    0            
          PB     .8          
        PBSW     .8          
          CJ    0            
        CJSW    0            
        CGSO    1.000000E-12 
        CGDO    1.000000E-12 
        CGBO    1.000000E-12 
         TOX    0            
          XJ    0            
       UCRIT   10.000000E+03 
      DIOMOD    1            
         VFB    0            
        LETA    0            
        WETA    0            
          U0    0            
        TEMP    0            
         VDD    5            
       XPART    0            


               X_out_signal_U3.PCHAN555_OUT 
               PMOS            
       LEVEL    1            
           L  100.000000E-06 
           W  100.000000E-06 
         VTO    -.2          
          KP   20.000000E-06 
       GAMMA    0            
         PHI     .6          
      LAMBDA    0            
          IS   10.000000E-15 
          JS    0            
          PB     .8          
        PBSW     .8          
         CBD  200.000000E-12 
          CJ    0            
        CJSW    0            
        CGSO    1.000000E-12 
        CGDO    1.000000E-12 
        CGBO    1.000000E-12 
         TOX    0            
          XJ    0            
       UCRIT   10.000000E+03 
      DIOMOD    1            
         VFB    0            
        LETA    0            
        WETA    0            
          U0    0            
        TEMP    0            
         VDD    5            
       XPART    0            


**** 12/18/22 17:13:58 ******* PSpice 17.4.0 (Nov 2018) ******* ID# 0 ********

 ** Profile: "root-root_tran11"  [ D:\cad\cadence\EED3009\eed3009-pspicefiles\root\root_tran11.sim ] 


 ****     Voltage Controlled Switch MODEL PARAMETERS


******************************************************************************




               X_U6.x1.Sbg1    
         RON    1            
        ROFF    1.000000E+06 
         VON    3.7          
        VOFF    3            


**** 12/18/22 17:13:58 ******* PSpice 17.4.0 (Nov 2018) ******* ID# 0 ********

 ** Profile: "root-root_tran11"  [ D:\cad\cadence\EED3009\eed3009-pspicefiles\root\root_tran11.sim ] 


 ****     Digital Input MODEL PARAMETERS


******************************************************************************




               DIN74           DIN74HC         
      S0NAME 0               0               
       S0TSW    3.500000E-09    5.000000E-09 
       S0RLO    7.13            1            
       S0RHI  389             100.000000E+03 
      S1NAME 1               1               
       S1TSW    5.500000E-09    5.000000E-09 
       S1RLO  467             100.000000E+03 
       S1RHI  200               1            
      S2NAME X               X               
       S2TSW    3.500000E-09    5.000000E-09 
       S2RLO   42.9           110            
       S2RHI  116             100            
      S3NAME R               R               
       S3TSW    3.500000E-09    5.000000E-09 
       S3RLO   42.9           110            
       S3RHI  116             100            
      S4NAME F               F               
       S4TSW    3.500000E-09    5.000000E-09 
       S4RLO   42.9           110            
       S4RHI  116             100            
      S5NAME Z               Z               
       S5TSW    3.500000E-09    5.000000E-09 
       S5RLO  200.000000E+03  200.000000E+03 
       S5RHI  200.000000E+03  200.000000E+03 


**** 12/18/22 17:13:58 ******* PSpice 17.4.0 (Nov 2018) ******* ID# 0 ********

 ** Profile: "root-root_tran11"  [ D:\cad\cadence\EED3009\eed3009-pspicefiles\root\root_tran11.sim ] 


 ****     Digital Output MODEL PARAMETERS


******************************************************************************




               DO74            DO74HC_ST       DO4000B         
    TIMESTEP  100.000000E-12  100.000000E-12  100.000000E-12 
      S0NAME X               0               X               
       S0VHI    2                .55             .5          
       S0VLO     .8            -1.3             -.5          
      S1NAME 0               1               0               
       S1VHI     .8             1.3             -.5          
       S1VLO   -1.5              .33           -3            
      S2NAME R                               R               
       S2VHI    1.4                              .05         
       S2VLO     .8                             -.5          
      S3NAME R                               R               
       S3VHI    2                                .5          
       S3VLO    1.3                             -.05         
      S4NAME X                               X               
       S4VHI    2                                .5          
       S4VLO     .8                             -.5          
      S5NAME 1                               1               
       S5VHI    7                               3            
       S5VLO    2                                .5          
      S6NAME F                               F               
       S6VHI    2                                .5          
       S6VLO    1.3                             -.05         
      S7NAME F                               F               
       S7VHI    1.4                              .05         
       S7VLO     .8                             -.5          


**** 12/18/22 17:13:58 ******* PSpice 17.4.0 (Nov 2018) ******* ID# 0 ********

 ** Profile: "root-root_tran11"  [ D:\cad\cadence\EED3009\eed3009-pspicefiles\root\root_tran11.sim ] 


 ****     Digital Gate MODEL PARAMETERS


******************************************************************************




               D_HC14          D0_GATE         D_PLD_GATE      
      TPLHMN    4.800000E-09    0               0            
      TPLHTY   12.000000E-09    0               0            
      TPLHMX   31.000000E-09    0               0            
      TPHLMN    4.800000E-09    0               0            
      TPHLTY   12.000000E-09    0               0            
      TPHLMX   31.000000E-09    0               0            


**** 12/18/22 17:13:58 ******* PSpice 17.4.0 (Nov 2018) ******* ID# 0 ********

 ** Profile: "root-root_tran11"  [ D:\cad\cadence\EED3009\eed3009-pspicefiles\root\root_tran11.sim ] 


 ****     Digital Edge Triggered FF MODEL PARAMETERS


******************************************************************************




               D0_EFF          D_PLD_EFF       D_74            
  TPCLKQLHMN    0               0               5.600000E-09 
  TPCLKQLHTY    0               0              14.000000E-09 
  TPCLKQLHMX    0               0              25.000000E-09 
  TPCLKQHLMN    0               0               8.000000E-09 
  TPCLKQHLTY    0               0              20.000000E-09 
  TPCLKQHLMX    0               0              40.000000E-09 
   TPPCQLHMN    0               0               6.250000E-09 
   TPPCQLHTY    0               0              15.625000E-09 
   TPPCQLHMX    0               0              25.000000E-09 
   TPPCQHLMN    0               0              10.000000E-09 
   TPPCQHLTY    0               0              25.000000E-09 
   TPPCQHLMX    0               0              40.000000E-09 
    TWCLKLMN    0               0              37.000000E-09 
    TWCLKLTY    0               0              37.000000E-09 
    TWCLKLMX    0               0              37.000000E-09 
    TWCLKHMN    0               0              30.000000E-09 
    TWCLKHTY    0               0              30.000000E-09 
    TWCLKHMX    0               0              30.000000E-09 
     TWPCLMN    0               0              30.000000E-09 
     TWPCLTY    0               0              30.000000E-09 
     TWPCLMX    0               0              30.000000E-09 
   TSUDCLKMN    0               0              20.000000E-09 
   TSUDCLKTY    0               0              20.000000E-09 
   TSUDCLKMX    0               0              20.000000E-09 
 TSUPCCLKHMN    0               0               0            
 TSUPCCLKHTY    0               0               0            
 TSUPCCLKHMX    0               0               0            
    THDCLKMN    0               0               5.000000E-09 
    THDCLKTY    0               0               5.000000E-09 
    THDCLKMX    0               0               5.000000E-09 
  TSUCECLKMN    0               0               0            
  TSUCECLKTY    0               0               0            
  TSUCECLKMX    0               0               0            
   THCECLKMN    0               0               0            
   THCECLKTY    0               0               0            
   THCECLKMX    0               0               0            


**** 12/18/22 17:13:58 ******* PSpice 17.4.0 (Nov 2018) ******* ID# 0 ********

 ** Profile: "root-root_tran11"  [ D:\cad\cadence\EED3009\eed3009-pspicefiles\root\root_tran11.sim ] 


 ****     Digital IO  MODEL PARAMETERS


******************************************************************************




               IO_STM          IO_HC_ST        IO_4000B        IO_STD          
        INLD                    3.500000E-12                                 
        DRVL    0              87               1.443000E+03  104            
        DRVH    0              87               1.443000E+03   96.4          
       AtoD1                 AtoD_HC_ST      AtoD_4000B      AtoD_STD        
       AtoD2                 AtoD_HC_ST      AtoD_4000B_NX   AtoD_STD_NX     
       AtoD3                 AtoD_HC_ST      AtoD_4000B      AtoD_STD        
       AtoD4                 AtoD_HC_ST      AtoD_4000B_NX   AtoD_STD_NX     
       DtoA1 DtoA_STM        DtoA_HC         DtoA_4000B      DtoA_STD        
       DtoA2 DtoA_STM        DtoA_HC         DtoA_4000B      DtoA_STD        
       DtoA3 DtoA_STM        DtoA_HC_E       DtoA_4000B      DtoA_STD        
       DtoA4 DtoA_STM        DtoA_HC_E       DtoA_4000B      DtoA_STD        
    DIGPOWER                                 CD4000_PWR                      
      TSWHL1                    2.742000E-09    7.720000E-09    1.511000E-09 
      TSWHL2                    2.742000E-09    7.860000E-09    1.487000E-09 
      TSWHL3                    2.751000E-09    9.710000E-09    1.511000E-09 
      TSWHL4                    2.751000E-09    9.630000E-09    1.487000E-09 
      TSWLH1                    2.758000E-09    7.560000E-09    3.517000E-09 
      TSWLH2                    2.758000E-09    7.400000E-09    3.564000E-09 
      TSWLH3                    2.763000E-09    9.410000E-09    3.517000E-09 
      TSWLH4                    2.763000E-09    9.240000E-09    3.564000E-09 
       TPWRT  100.000000E+03    2.000000E-09  100.000000E+03  100.000000E+03 


               IO_PLD          IO_DFT          IO_HC           IO_HC_DTOA      
        INLD                                    3.500000E-12                 
        DRVL                                   87                            
        DRVH                                   87                            
       AtoD1                 AtoD_STD        AtoD_HC                         
       AtoD2                 AtoD_STD_NX     AtoD_HC_NX                      
       AtoD3                 AtoD_STD        AtoD_HC                         
       AtoD4                 AtoD_STD_NX     AtoD_HC_NX                      
       DtoA1                 DtoA_STD        DtoA_HC                         
       DtoA2                 DtoA_STD        DtoA_HC                         
       DtoA3                 DtoA_STD        DtoA_HC_E                       
       DtoA4                 DtoA_STD        DtoA_HC_E                       
      TSWHL1                                    2.742000E-09                 
      TSWHL2                                    2.742000E-09                 
      TSWHL3                                    2.751000E-09                 
      TSWHL4                                    2.751000E-09                 
      TSWLH1                                    2.758000E-09                 
      TSWLH2                                    2.758000E-09                 
      TSWLH3                                    2.763000E-09                 
      TSWLH4                                    2.763000E-09                 
       TPWRT  100.000000E+03  100.000000E+03    2.000000E-09  100.000000E+03 


**** 12/18/22 17:13:58 ******* PSpice 17.4.0 (Nov 2018) ******* ID# 0 ********

 ** Profile: "root-root_tran11"  [ D:\cad\cadence\EED3009\eed3009-pspicefiles\root\root_tran11.sim ] 


 ****     INITIAL TRANSIENT SOLUTION       TEMPERATURE =   27.000 DEG C


******************************************************************************



 NODE   VOLTAGE     NODE   VOLTAGE     NODE   VOLTAGE     NODE   VOLTAGE


(  VDD)    4.9962  (  VLP)     .1029  (  VO+)    4.9962  (  VO-) 2.316E-06      

(  VPA)    2.4514  (  VPC)     .1019  (C_CLK)    4.9962  (SOUND) 416.7E-09      

(/SOUND)    4.9962 (ECHO_A)    -.0019 (ECHO_D)     .1017 (N29217)     .1037     

(N29421)    1.6500 (N29551)    3.3308 (N29853)    1.7773 (N29991)    1.6500     

(N29999)    4.9962 (N30031)    3.3308 (N74582)    2.5976 (N74666)    1.6500     

(N74696)    3.3308 (N86762)    9.0000 (N97476)    2.4961 (N97556)    2.2383     

(N97588)     .1031 (N97606)    2.4981 (N98046)     .1035 (N98078)    2.9977     

(X_U1.1) 416.7E-09 (X_U1.2)    1.6654 (X_U1.3)  153.9500 (X_U1.4)    4.1962     

(X_U1.5)    3.9417 (X_U1.6)-16.81E+03 (X_U1.7)    4.1962 (X_U1.8)    -.6685     

(X_U1.9) 26.04E-09 (X_U3.1)    4.9962 (X_U3.2)    1.6654 (X_U3.3)  153.9600     

(X_U3.4)    4.1962 (X_U3.5)    3.9417 (X_U3.6)-16.81E+03 (X_U3.7)    4.1962     

(X_U3.8)    -.6685 (X_U3.9)    4.9962 (X_U5.1) 416.7E-09 (X_U5.2)    1.6654     

(X_U5.3)  153.9500 (X_U5.4)    4.1962 (X_U5.5)    3.9417 (X_U5.6)-16.81E+03     

(X_U5.7)    4.1962 (X_U5.8)    -.6685 (X_U5.9) 26.04E-09 ($G_DGND)    0.0000    

($G_DPWR)    5.0000                   (N130514)     .0899                       

(N130528)    2.5000                   (N130542)-27.76E-18                       

(N130552)    2.5000                   (N130630)     .0058                       

(N293890)    4.9962                   (REF_2V5)    2.4983                       

(X_U1.10)    4.9962                   (X_U1.11)    2.4981                       

(X_U1.12)    4.9962                   (X_U1.13) 416.7E-09                       

(X_U1.14) 347.2E-09                   (X_U1.15)    4.9962                       

(X_U1.16)    4.9962                   (X_U1.17)    4.9962                       

(X_U1.18) 416.7E-09                   (X_U1.19) 208.3E-09                       

(X_U1.20)    4.9962                   (X_U1.21)     .1315                       

(X_U1.22)    2.4981                   (X_U1.23)    4.7417                       

(X_U1.24) 764.0E-09                   (X_U1.25) 104.2E-09                       

(X_U3.10) 347.2E-09                   (X_U3.11)    4.9962                       

(X_U3.12) 26.04E-09                   (X_U3.13)    4.9962                       

(X_U3.14)    4.9962                   (X_U3.15)    2.4981                       

(X_U3.16)     .2010                   (X_U3.17) 99.98E-09                       

(X_U3.18)    4.9961                   (X_U3.19)    4.7952                       

(X_U3.20)    4.9962                   (X_U3.21)     .1315                       

(X_U3.22)    2.4981                   (X_U3.23)    4.7417                       

(X_U3.24) 764.0E-09                   (X_U3.25)    4.9961                       

(X_U5.10)    4.9962                   (X_U5.11)    2.4981                       

(X_U5.12)    4.9962                   (X_U5.13) 416.7E-09                       

(X_U5.14) 347.2E-09                   (X_U5.15)    4.9962                       

(X_U5.16)    4.9962                   (X_U5.17)    4.9962                       

(X_U5.18) 416.7E-09                   (X_U5.19) 208.3E-09                       

(X_U5.20)    4.9962                   (X_U5.21)     .1315                       

(X_U5.22)    2.4981                   (X_U5.23)    4.7417                       

(X_U5.24) 764.0E-09                   (X_U5.25) 104.2E-09                       

(N1304641) 416.7E-09                  (TRANSMIT)     .0022                      

(X_U1.VDD)    4.9962                  (X_U3.VDD)    4.9962                      

(X_U5.VDD)    4.9962                  (X_U6.x1.4)    6.4146                     

(X_U6.x1.5)    6.3833                 (X_U6.x1.6)    5.7166                     

(X_U6.x1.7)    5.0142                 (X_U6.x1.8)    4.9967                     

(X_U6.x1.9)    4.9967                 (X_U6.x1.55)    5.0142                    

(X_U6.x1.56)    5.0143                (X_U6.x1.100)    7.4000                   

(X_U6.x1.101)    3.7004               (X_U6.x1.102)    9.0000                   

(X_U6.x1.105)    6.4146               (X_U6.x1.106)    6.4146                   

(X_U6.x1.107)    1.0000               (X_U6.x1.108)    8.0000                   

(X_U6.x1.200) 1665.0000               ($G_CD4000_VDD)    5.0000                 

($G_CD4000_VSS)    0.0000             (X_U8A.x_lm393.7)    3.6491               

(X_U8A.x_lm393.8)     .4233           (X_U8A.x_lm393.9)     .7626               

(X_U8B.x_lm393.7)    1.5140           (X_U8B.x_lm393.8)     .4015               

(X_U8B.x_lm393.9)     .7625           (X_U8A.x_lm393.10)     .7626              

(X_U8A.x_lm393.11)     .7626          (X_U8A.x_lm393.21)    2.9883              

(X_U8A.x_lm393.22)    3.2483          (X_U8B.x_lm393.10)     .7625              

(X_U8B.x_lm393.11)     .7625          (X_U8B.x_lm393.21)     .8531              

(X_U8B.x_lm393.22)    3.7477          (X_out_signal_U3.1)    4.9962             

(X_out_signal_U3.2)    1.6654         (X_out_signal_U3.3)  153.9600             

(X_out_signal_U3.4)    4.1962         (X_out_signal_U3.5)    3.9417             

(X_out_signal_U3.6)-16.81E+03         (X_out_signal_U3.7)    4.1962             

(X_out_signal_U3.8)    -.6685         (X_out_signal_U3.9)    4.9962             

(out_signal_N123613)     .1037        (out_signal_N123785)    1.6500            

(out_signal_N123881)    3.3308        (X$C_CLK_AtoD1.NORM)    1.2481            

(X_out_signal_U3.10) 347.2E-09        (X_out_signal_U3.11)    4.9962            

(X_out_signal_U3.12) 26.04E-09        (X_out_signal_U3.13)    4.9962            

(X_out_signal_U3.14)    4.9962        (X_out_signal_U3.15)    2.4981            

(X_out_signal_U3.16)     .2010        (X_out_signal_U3.17) 99.98E-09            

(X_out_signal_U3.18)    4.9961        (X_out_signal_U3.19)    4.7952            

(X_out_signal_U3.20)    4.9962        (X_out_signal_U3.21)     .1315            

(X_out_signal_U3.22)    2.4981        (X_out_signal_U3.23)    4.7417            

(X_out_signal_U3.24) 764.0E-09        (X_out_signal_U3.25)    4.9961            

(X_U7A.xinstlm358.1)     .0398        (X_U7A.xinstlm358.2)    3.0900            

(X_U7A.xinstlm358.4)     .0396        (X_U7A.xinstlm358.5)    3.0900            

(X_U7A.xinstlm358.6)    2.4983        (X_U7A.xinstlm358.7) 1000.0000            

(X_U7A.xinstlm358.9)    3.0996        (X_U7B.xinstlm358.1)     .0394            

(X_U7B.xinstlm358.2)     .6966        (X_U7B.xinstlm358.4)     .0409            

(X_U7B.xinstlm358.5)     .6961        (X_U7B.xinstlm358.6)     .1034            

(X_U7B.xinstlm358.7) 1000.0000        (X_U7B.xinstlm358.9)    3.0996            

(X$N29999_AtoD1.NORM)     .9992       (X_out_signal_U3.VDD)    4.9962           

(X_U7A.xinstlm358.10)    2.4834       (X_U7A.xinstlm358.11)    1.5156           

(X_U7A.xinstlm358.12)    0.0000       (X_U7A.xinstlm358.14)    2.3596           

(X_U7A.xinstlm358.15)    2.3596       (X_U7A.xinstlm358.16)    -.4106           

(X_U7A.xinstlm358.17)    3.1039       (X_U7A.xinstlm358.18)    2.3596           

(X_U7A.xinstlm358.20) 40.03E-06       (X_U7A.xinstlm358.21)     .9559           

(X_U7A.xinstlm358.22)    1.5514       (X_U7A.xinstlm358.24) 1000.8000           

(X_U7A.xinstlm358.25)    2.4834       (X_U7A.xinstlm358.26)    3.2112           

(X_U7A.xinstlm358.27)    1.7556       (X_U7B.xinstlm358.10)     .1186           

(X_U7B.xinstlm358.11)    -.8492       (X_U7B.xinstlm358.12)    0.0000           

(X_U7B.xinstlm358.14)    2.4196       (X_U7B.xinstlm358.15)    2.4196           

(X_U7B.xinstlm358.16)     .8492       (X_U7B.xinstlm358.17)     .7104           

(X_U7B.xinstlm358.18)    2.4368       (X_U7B.xinstlm358.20) 40.03E-06           

(X_U7B.xinstlm358.21)    -.5747       (X_U7B.xinstlm358.22)     .0056           

(X_U7B.xinstlm358.24) 1000.8000       (X_U7B.xinstlm358.25)     .1186           

(X_U7B.xinstlm358.26)     .8465       (X_U7B.xinstlm358.27)    -.6092           

(X$TRANSMIT_DtoA1.DGND_OL)     .0022  (X$TRANSMIT_DtoA1.DPWR_OH)    4.9975      

(X$C_CLK_AtoD1.XNORM.THRESHOLD)    1.5000                



 DGTL NODE : STATE  DGTL NODE : STATE  DGTL NODE : STATE  DGTL NODE : STATE


(X_CD4026_2_U1A.D1) : 1               (M_UN0006) : 1     (  N32659) : 0         

(X_CD4026_2_U1A.D2) : 1               (M_UN0003) : 1                            

(X_CD4026_2_U1A.RESET) : 1            (X_CD4026_2_U1A.CLK4) : 1                 

(X_CD4026_1_U1A.D3) : 1               (TRANSMIT$AtoD2) : 0                      

( N131716) : 0     (X_CD4026_2_U1A.Q4) : 0                                      

(X_CD4026_2_U1A.CLK1) : 0             (X_CD4026_1_U1A.CLK4) : 1                 

(delaydd_N00900) : 0                  (X_CD4026_1_U1A.D4) : 1                   

(X_CD4026_1_U1A.Q1BAR) : 1            (X_CD4026_2_U1A.Q1) : 0                   

(X_CD4026_1_U1A.CLK1) : 1             (X_CD4026_2_U1A.CLK) : 0                  

(  N32671) : 0     (N130514$DtoA) : 0                    (delaydd_N00916) : 0   

(X_CD4026_2_U1A.Q2) : 0               (  N32655) : 0     (  N84729) : 0         

(X_CD4026_2_U1A.Q2BAR) : 1            (X_CD4026_1_U1A.Q3) : 0                   

(  N32753) : 1     (M_UN0010) : 1     (  N32613) : 0     (TRANSMIT$AtoD) : 0    

(   $D_HI) : 1     (X_CD4026_1_U1A.Q4) : 0               (C_CLK$AtoD) : 1       

(M_UN0007) : 1     (N29999$AtoD) : 1  (X_CD4026_2_U1A.D3) : 1                   

(M_UN0004) : 1     (X_CD4026_1_U1A.RESETBAR) : 0                                

(X_CD4026_1_U1A.Q4BAR) : 1            (delaydd_N00904) : 0                      

(  N32667) : 0     (delaydd_N00920) : 0                  (M_UN0001) : 1         

(X_CD4026_2_U1A.CLK2) : 1             (delaydd_N00892) : 0                      

(X_CD4026_2_U1A.Q1BAR) : 1            (X_CD4026_1_U1A.CLK2) : 1                 

( N142057) : 1     (ECHO_D$AtoD) : 0  (X_CD4026_2_U1A.EN) : 1                   

(X_CD4026_2_U1A.Q3) : 0               (  N32683) : 0     (M_UN0008) : 1         

(delaydd_N00908) : 0                  (M_UN0011) : 1     ( N142021) : 1         

(CD4026_1_N004852) : 0                (TRANSMIT$DtoA) : 0                       

(X_CD4026_1_U1A.Q3BAR) : 1            (C_CLK$AtoD2) : 1  (  N32663) : 0         

(delaydd_N00924) : 0                  (M_UN0005) : 1                            

(X_CD4026_2_U1A.Q4BAR) : 1            (X_CD4026_1_U1A.D1) : 1                   

(X_CD4026_2_U1A.RESETBAR) : 0         (delaydd_N00896) : 0                      

(  N32679) : 0     (X_CD4026_1_U1A.RESET) : 1            (M_UN0002) : 1         

(X_CD4026_2_U1A.CLK3) : 1             (X_CD4026_1_U1A.D2) : 1                   

(X_CD4026_1_U1A.EN) : 1               (X_CD4026_1_U1A.CLK3) : 1                 

(  0$DtoA) : 1     (CD4026_2_N004852) : 0                (M_UN0009) : 1         

(X_CD4026_1_U1A.Q1) : 0               (X_CD4026_1_U1A.CLK) : 1                  

(M_UN0012) : 0     (X_CD4026_1_U1A.Q2BAR) : 1            (  N32675) : 0         

(delaydd_N00912) : 0                  (X_CD4026_1_U1A.Q2) : 0                   

(X_CD4026_2_U1A.D4) : 1               (X_CD4026_2_U1A.Q3BAR) : 1            




    VOLTAGE SOURCE CURRENTS
    NAME         CURRENT

    V_V1        -6.395E-02
    V_V3        -3.388E-21
    X_U1.V_U6_V2   3.942E-09
    X_U1.V_U7_V2  -1.681E-03
    X_U3.V_U6_V2   3.942E-09
    X_U3.V_U7_V2  -1.681E-03
    X_U5.V_U6_V2   3.942E-09
    X_U5.V_U7_V2  -1.681E-03
    X_out_signal_U3.V_U6_V2   3.942E-09
    X_out_signal_U3.V_U7_V2  -1.681E-03
    X_U6.x1.Vbg  -3.700E+00
    X_U6.x1.Vgainf  -1.665E+03
    X_U6.x1.Vl1   1.585E-09
    X_U6.x1.Vl2   5.415E-09
    X_U7B.xinstlm358.VFI7   1.815E+00
    X_U7B.xinstlm358.VFI6   8.492E-10
    X_U7B.xinstlm358.VREF   1.485E+00
    X_U8A.x_lm393.vi1   4.775E-08
    X_U8A.x_lm393.vi2  -2.823E-09
    X_U8A.x_lm393.v1   9.994E-05
    X_U8B.x_lm393.vi1   4.989E-08
    X_U8B.x_lm393.vi2  -3.347E-09
    X_U8B.x_lm393.v1   9.995E-05
    X_U7A.xinstlm358.VFI7  -8.213E-08
    X_U7A.xinstlm358.VFI6  -7.895E-08
    X_U7A.xinstlm358.VREF   1.485E+00
    X$CD4000_PWR.VVDD  -5.000E-06
    X$CD4000_PWR.VVSS  -4.945E-06
    X$DIGIFPWR.VDPWR  -5.496E-05
    X$DIGIFPWR.VDGND  -4.990E-06

    TOTAL POWER DISSIPATION   2.77E+06  WATTS

Reducing minimum delta to make the circuit converge.
Reducing minimum delta to make the circuit converge.
Reducing minimum delta to make the circuit converge.
Reducing minimum delta to make the circuit converge.
Reducing minimum delta to make the circuit converge.

ERROR(ORPSIM-15138): Convergence problem in Transient Analysis at Time =  9.458E-03.
         Time step =  650.5E-21, minimum allowable step size =  1.000E-18

  These voltages failed to converge:

    V(N130630)                =     2.679V  \     1.547V
    V(X_U1.17)                =   -8.156uV  \   -6.523uV
    V(X_U1.18)                =    23.76uV  \    16.89uV
    V(X_U1.14)                =    21.35uV  \    15.39uV
    V(X_U3.17)                =   -47.64uV  \   -40.06uV
    V(X_U3.12)                =  -768.30uV  \  -548.88uV
    V(X_U3.24)                =  -159.27uV  \  -134.34uV
    V(TRANSMIT)               =    2.217mV  \    2.221mV
    V(X_U5.17)                =  -197.19uV  \  -119.11uV
    V(X_U5.12)                =    26.50uV  \    20.76uV
    V(X_U5.25)                =   -45.16uV  \   -26.48uV
    V(X_U5.19)                =    13.18uV  \    20.00uV
    V(X_U5.22)                =    7.751mV  \    7.770mV
    V(X_out_signal_U3.9)      =    4.466uV  \    2.798uV
    V(X_out_signal_U3.17)     =    8.493uV  \    5.586uV
    V(X_out_signal_U3.18)     =   867.27uV  \   865.15uV
    V(X_out_signal_U3.19)     =   517.94uV  \   514.70uV
    V(X_U7B.xinstlm358.11)    =  -624.52mV  \     3.101V
    V(X$TRANSMIT_DtoA1.DGND_OL) =    2.167mV  \    2.171mV

  These supply currents failed to converge:

    I(X_U1.E_EMIR)            =  -949.71uA  \   -3.235mA
    I(X_U1.E_EVAL)            =  -186.80uA  \  -251.96uA
    I(X_U3.E_EMIR)            =    24.35mA  \    40.52mA
    I(X_U3.E_EVAL)            =   -42.24uA  \   -56.12uA
    I(X_U5.E_EMIR)            =   -1.428mA  \    47.08mA
    I(X_U5.E_EVAL)            =   -54.75uA  \   -74.27uA
    I(X_out_signal_U3.E_EMIR) =    2.547mA  \    2.835mA
    I(X_out_signal_U3.E_EVAL) =   158.27uA  \   213.37uA
    I(X_V4.E1)                =   -23.65uA  \   -12.32uA
    I(X_U7B.xinstlm358.EU1)   =    63.41nA  \    3.808nA
    I(X_U7B.xinstlm358.EVM)   =  -624.51pA  \    3.101nA
    I(X_U7B.xinstlm358.EVP)   =    6.459mA  \   -1.353mA
    I(X_U8A.x_lm393.e1)       =   -24.63nA  \    14.60nA
    I(X_U7A.xinstlm358.EU1)   =         0A  \    93.75mA
    I(X_U7A.xinstlm358.EVM)   =    1.237nA  \  -312.77pA
    I(X_U8A.x_lm393.v1)       =    24.63nA  \   -14.60nA
    I(X$CD4000_PWR.VVSS)      =  -474.43uA  \  -430.20uA
    I(X$DIGIFPWR.VDGND)       =   -7.140mA  \   -7.119mA

  These devices failed to converge:
    X_U7B.xinstlm358.D5 X_V4.E1   X_U8A.x_lm393.q3 



  Last node voltages tried were:

 NODE   VOLTAGE     NODE   VOLTAGE     NODE   VOLTAGE     NODE   VOLTAGE


(  VDD)    4.9974  (  VLP)     .9467  (  VO+)    4.9974  (  VO-) 28.38E-06      

(  VPA)    3.8728  (  VPC)    4.8701  (C_CLK)    3.1910  (SOUND) 327.0E-09      

(/SOUND)    4.9974 (ECHO_A)     .3143 (ECHO_D)     .1018 (N29217)     .1031     

(N29421)     .1031 (N29551)    3.3308 (N29853)    2.5633 (N29991)    2.4670     

(N29999)    4.9974 (N30031)    3.3308 (N74582)    3.8032 (N74666)    3.3314     

(N74696)    3.3308 (N86762)    9.0000 (N97476)    2.8318 (N97556)    3.9634     

(N97588)     .7781 (N97606)    2.7845 (N98046)     .9678 (N98078)    2.9984     

(X_U1.1) 330.8E-09 (X_U1.2)    1.6654 (X_U1.3)-8016.2000 (X_U1.4)    4.1974     

(X_U1.5)    -.6494 (X_U1.6)-8637.8000 (X_U1.7)    4.1974 (X_U1.8)    -.6513     

(X_U1.9)-2.764E-06 (X_U3.1)    4.9974 (X_U3.2)    1.6654 (X_U3.3) 15.62E+03     

(X_U3.4)    4.1974 (X_U3.5)    4.0640 (X_U3.6)-32.28E+03 (X_U3.7)    4.1974     

(X_U3.8)    -.6852 (X_U3.9)    4.9974 (X_U5.1)-42.63E-06 (X_U5.2)    1.6654     

(X_U5.3)-16.66E+03 (X_U5.4)    4.1974 (X_U5.5)    -.6685 (X_U5.6)    5.8103     

(X_U5.7)    4.1974 (X_U5.8)     .7656 (X_U5.9)     .4676 ($G_DGND)    0.0000    

($G_DPWR)    5.0000                   (N130514)    3.4989                       

(N130528)    5.8941                   (N130542)     .3394                       

(N130552)    2.5000                   (N130630)    2.6788                       

(N293890)    4.9974                   (REF_2V5)    2.4989                       

(X_U1.10)    4.9974                   (X_U1.11)     .2020                       

(X_U1.12)    4.9975                   (X_U1.13) 330.8E-09                       

(X_U1.14) 21.35E-06                   (X_U1.15)    4.9974                       

(X_U1.16)    4.9974                   (X_U1.17)-8.156E-06                       

(X_U1.18) 23.76E-06                   (X_U1.19) 4.174E-06                       

(X_U1.20)    4.9973                   (X_U1.21)     .1487                       

(X_U1.22)    4.7963                   (X_U1.23)     .1506                       

(X_U1.24)    4.9972                   (X_U1.25) 107.5E-09                       

(X_U3.10)-2.433E-06                   (X_U3.11)    4.9974                       

(X_U3.12)-768.3E-06                   (X_U3.13)    4.9974                       

(X_U3.14)    4.9972                   (X_U3.15)    2.4958                       

(X_U3.16)     .2009                   (X_U3.17)-47.64E-06                       

(X_U3.18)    4.9970                   (X_U3.19)    4.7981                       

(X_U3.20)    4.9959                   (X_U3.21)     .1148                       

(X_U3.22)    2.4972                   (X_U3.23)    4.8640                       

(X_U3.24)-159.3E-06                   (X_U3.25)    4.9973                       

(X_U5.10)    4.9893                   (X_U5.11)    1.8279                       

(X_U5.12) 26.50E-06                   (X_U5.13)-42.63E-06                       

(X_U5.14)    4.9976                   (X_U5.15)    -.0826                       

(X_U5.16)    4.9973                   (X_U5.17)-197.2E-06                       

(X_U5.18)    4.9973                   (X_U5.19) 13.18E-06                       

(X_U5.20)     .0099                   (X_U5.21)    1.5656                       

(X_U5.22)     .0078                   (X_U5.23)     .1315                       

(X_U5.24)    4.9980                   (X_U5.25)-45.16E-06                       

(N1304641)    4.9954                  (TRANSMIT)     .0022                      

(X_U1.VDD)    4.9974                  (X_U3.VDD)    4.9974                      

(X_U5.VDD)    4.9974                  (X_U6.x1.4)    6.3730                     

(X_U6.x1.5)    6.3521                 (X_U6.x1.6)    5.6960                     

(X_U6.x1.7)    5.0078                 (X_U6.x1.8)    4.9967                     

(X_U6.x1.9)    4.9976                 (X_U6.x1.55)    5.0078                    

(X_U6.x1.56)    5.0078                (X_U6.x1.100)    7.4000                   

(X_U6.x1.101)    3.7004               (X_U6.x1.102)    9.0000                   

(X_U6.x1.105)    6.3730               (X_U6.x1.106)    6.3730                   

(X_U6.x1.107)    1.0000               (X_U6.x1.108)    8.0000                   

(X_U6.x1.200) 1665.0000               ($G_CD4000_VDD)    5.0000                 

($G_CD4000_VSS)    0.0000             (X_U8A.x_lm393.7)    3.9098               

(X_U8A.x_lm393.8)     .6503           (X_U8A.x_lm393.9)     .0179               

(X_U8B.x_lm393.7)    2.1890           (X_U8B.x_lm393.8)     .4051               

(X_U8B.x_lm393.9)     .7626           (X_U8A.x_lm393.10)     .0179              

(X_U8A.x_lm393.11)     .0179          (X_U8A.x_lm393.21)    4.7134              

(X_U8A.x_lm393.22)    3.2489          (X_U8B.x_lm393.10)     .7626              

(X_U8B.x_lm393.11)     .7626          (X_U8B.x_lm393.21)    1.5281              

(X_U8B.x_lm393.22)    3.7484          (X_out_signal_U3.1) 403.4E-09             

(X_out_signal_U3.2)    1.6654         (X_out_signal_U3.3) -675.4900             

(X_out_signal_U3.4)    4.1974         (X_out_signal_U3.5)    -.5854             

(X_out_signal_U3.6)-15.98E+03         (X_out_signal_U3.7)    4.1974             

(X_out_signal_U3.8)    -.6672         (X_out_signal_U3.9) 4.466E-06             

(out_signal_N123613)    4.9387        (out_signal_N123785)    1.7329            

(out_signal_N123881)    3.3308        (X$C_CLK_AtoD1.NORM)     .3455            

(X_out_signal_U3.10)    4.9974        (X_out_signal_U3.11)     .2009            

(X_out_signal_U3.12)    4.9974        (X_out_signal_U3.13) 403.4E-09            

(X_out_signal_U3.14) 913.6E-09        (X_out_signal_U3.15)    4.9974            

(X_out_signal_U3.16)    4.9974        (X_out_signal_U3.17) 8.493E-06            

(X_out_signal_U3.18) 867.3E-06        (X_out_signal_U3.19) 517.9E-06            

(X_out_signal_U3.20)    4.9972        (X_out_signal_U3.21)     .1328            

(X_out_signal_U3.22)    4.7823        (X_out_signal_U3.23)     .2146            

(X_out_signal_U3.24)    4.9855        (X_out_signal_U3.25) 514.1E-06            

(X_U7A.xinstlm358.1) 31.92E-06        (X_U7A.xinstlm358.2)    3.1364            

(X_U7A.xinstlm358.4)     .0793        (X_U7A.xinstlm358.5)    3.1086            

(X_U7A.xinstlm358.6)    2.4988        (X_U7A.xinstlm358.7) 1000.0000            

(X_U7A.xinstlm358.9)    3.1008        (X_U7B.xinstlm358.1)     .0494            

(X_U7B.xinstlm358.2)    1.5462        (X_U7B.xinstlm358.4)     .0306            

(X_U7B.xinstlm358.5)    1.5528        (X_U7B.xinstlm358.6)     .9677            

(X_U7B.xinstlm358.7) 1000.0000        (X_U7B.xinstlm358.9)    3.1008            

(X$N29999_AtoD1.NORM)     .9995       (X_out_signal_U3.VDD)    4.9974           

(X_U7A.xinstlm358.10)    3.9082       (X_U7A.xinstlm358.11)    2.9404           

(X_U7A.xinstlm358.12)    0.0000       (X_U7A.xinstlm358.14)    2.3413           

(X_U7A.xinstlm358.15)    2.3413       (X_U7A.xinstlm358.16)    -.8074           

(X_U7A.xinstlm358.17)    3.1364       (X_U7A.xinstlm358.18)    2.3376           

(X_U7A.xinstlm358.20) 40.03E-06       (X_U7A.xinstlm358.21)    2.3772           

(X_U7A.xinstlm358.22)    2.9728       (X_U7A.xinstlm358.24) 1000.8000           

(X_U7A.xinstlm358.25)    3.9082       (X_U7A.xinstlm358.26)    4.6360           

(X_U7A.xinstlm358.27)    3.1803       (X_U7B.xinstlm358.10)     .9777           

(X_U7B.xinstlm358.11)    -.6245       (X_U7B.xinstlm358.12)    0.0000           

(X_U7B.xinstlm358.14)    2.3590       (X_U7B.xinstlm358.15)    2.3590           

(X_U7B.xinstlm358.16)    -.4341       (X_U7B.xinstlm358.17)    1.5635           

(X_U7B.xinstlm358.18)    2.3593       (X_U7B.xinstlm358.20) 40.03E-06           

(X_U7B.xinstlm358.21)    -.5012       (X_U7B.xinstlm358.22)     .0936           

(X_U7B.xinstlm358.24) 1000.8000       (X_U7B.xinstlm358.25)     .9777           

(X_U7B.xinstlm358.26)    1.7055       (X_U7B.xinstlm358.27)     .2499           

(X$TRANSMIT_DtoA1.DGND_OL)     .0022  (X$TRANSMIT_DtoA1.DPWR_OH)    4.9975      

(X$C_CLK_AtoD1.XNORM.THRESHOLD)    1.5000                



 DGTL NODE : STATE  DGTL NODE : STATE  DGTL NODE : STATE  DGTL NODE : STATE


(X_CD4026_2_U1A.D1) : 1               (M_UN0006) : 1     (  N32659) : 0         

(X_CD4026_2_U1A.D2) : 1               (M_UN0003) : 1                            

(X_CD4026_2_U1A.RESET) : 1            (X_CD4026_2_U1A.CLK4) : 1                 

(X_CD4026_1_U1A.D3) : 1               (TRANSMIT$AtoD2) : 0                      

( N131716) : 1     (X_CD4026_2_U1A.Q4) : 0                                      

(X_CD4026_2_U1A.CLK1) : 0             (X_CD4026_1_U1A.CLK4) : 1                 

(delaydd_N00900) : 0                  (X_CD4026_1_U1A.D4) : 1                   

(X_CD4026_1_U1A.Q1BAR) : 1            (X_CD4026_2_U1A.Q1) : 0                   

(X_CD4026_1_U1A.CLK1) : F             (X_CD4026_2_U1A.CLK) : 0                  

(  N32671) : 0     (N130514$DtoA) : 1                    (delaydd_N00916) : 0   

(X_CD4026_2_U1A.Q2) : 0               (  N32655) : 0     (  N84729) : 0         

(X_CD4026_2_U1A.Q2BAR) : 1            (X_CD4026_1_U1A.Q3) : 0                   

(  N32753) : 1     (M_UN0010) : 1     (  N32613) : 0     (TRANSMIT$AtoD) : 0    

(   $D_HI) : 1     (X_CD4026_1_U1A.Q4) : 0               (C_CLK$AtoD) : F       

(M_UN0007) : 1     (N29999$AtoD) : 1  (X_CD4026_2_U1A.D3) : 1                   

(M_UN0004) : 1     (X_CD4026_1_U1A.RESETBAR) : 0                                

(X_CD4026_1_U1A.Q4BAR) : 1            (delaydd_N00904) : 0                      

(  N32667) : 0     (delaydd_N00920) : 0                  (M_UN0001) : 1         

(X_CD4026_2_U1A.CLK2) : 1             (delaydd_N00892) : 0                      

(X_CD4026_2_U1A.Q1BAR) : 1            (X_CD4026_1_U1A.CLK2) : 1                 

( N142057) : 1     (ECHO_D$AtoD) : 0  (X_CD4026_2_U1A.EN) : 1                   

(X_CD4026_2_U1A.Q3) : 0               (  N32683) : 0     (M_UN0008) : 1         

(delaydd_N00908) : 0                  (M_UN0011) : 1     ( N142021) : 1         

(CD4026_1_N004852) : 0                (TRANSMIT$DtoA) : 0                       

(X_CD4026_1_U1A.Q3BAR) : 1            (C_CLK$AtoD2) : 1  (  N32663) : 0         

(delaydd_N00924) : 0                  (M_UN0005) : 1                            

(X_CD4026_2_U1A.Q4BAR) : 1            (X_CD4026_1_U1A.D1) : 1                   

(X_CD4026_2_U1A.RESETBAR) : 0         (delaydd_N00896) : 0                      

(  N32679) : 0     (X_CD4026_1_U1A.RESET) : 1            (M_UN0002) : 1         

(X_CD4026_2_U1A.CLK3) : 1             (X_CD4026_1_U1A.D2) : 1                   

(X_CD4026_1_U1A.EN) : 1               (X_CD4026_1_U1A.CLK3) : 1                 

(  0$DtoA) : 0     (CD4026_2_N004852) : 0                (M_UN0009) : 1         

(X_CD4026_1_U1A.Q1) : 0               (X_CD4026_1_U1A.CLK) : F                  

(M_UN0012) : 0     (X_CD4026_1_U1A.Q2BAR) : 1            (  N32675) : 0         

(delaydd_N00912) : 0                  (X_CD4026_1_U1A.Q2) : 0                   

(X_CD4026_2_U1A.D4) : 1               (X_CD4026_2_U1A.Q3BAR) : 1            


**** Interrupt ****
