
**** 01/28/22 16:04:37 ******* PSpice 17.4.0 (Nov 2018) ******* ID# 0 ********

 ** Profile: "Clampers-simulation"  [ C:\Users\Abdurrahman\Documents\CADENCE\test1\test1-PSpiceFiles\Clampers\simulation.sim ] 


 ****     CIRCUIT DESCRIPTION


******************************************************************************




** Creating circuit file "simulation.cir" 
** WARNING: THIS AUTOMATICALLY GENERATED FILE MAY BE OVERWRITTEN BY SUBSEQUENT SIMULATIONS

*Libraries: 
* Profile Libraries :
* Local Libraries :
* From [PSPICE NETLIST] section of C:\DOCUMENTS\CADENCE\cdssetup\OrCAD_PSpice\17.4.0\PSpice.ini file:
.lib "nom.lib" 

*Analysis directives: 
.TRAN  0 1000ns 0 SKIPBP 
.OPTIONS ADVCONV
.PROBE64 V(alias(*)) I(alias(*)) W(alias(*)) D(alias(*)) NOISE(alias(*)) 
.INC "..\Clampers.net" 



**** INCLUDING Clampers.net ****
* source TEST1
C_C1         N00044 VOUT1  1n  TC=0,0 
V_V1         N00044 0  
+SIN 0 5 1k 0 0 0
D_D1         VOUT1 0 Dbreak 
C_C2         N00834 VOUT2  1n  TC=0,0 
V_V2         0 N00834  
+SIN 0 5 1k 0 0 0
D_D2         0 VOUT2 Dbreak 

**** RESUMING simulation.cir ****
.END

**** 01/28/22 16:04:37 ******* PSpice 17.4.0 (Nov 2018) ******* ID# 0 ********

 ** Profile: "Clampers-simulation"  [ C:\Users\Abdurrahman\Documents\CADENCE\test1\test1-PSpiceFiles\Clampers\simulation.sim ] 


 ****     Diode MODEL PARAMETERS


******************************************************************************




               Dbreak          
          IS   10.000000E-15 
          RS     .1          
         CJO  100.000000E-15 



          JOB CONCLUDED

**** 01/28/22 16:04:37 ******* PSpice 17.4.0 (Nov 2018) ******* ID# 0 ********

 ** Profile: "Clampers-simulation"  [ C:\Users\Abdurrahman\Documents\CADENCE\test1\test1-PSpiceFiles\Clampers\simulation.sim ] 


 ****     JOB STATISTICS SUMMARY


******************************************************************************



  Total job time (using Solver 1)   =         .03
