
**** 01/28/22 15:56:58 ******* PSpice 17.4.0 (Nov 2018) ******* ID# 0 ********

 ** Profile: "Clampers-Transient"  [ C:\Users\Abdurrahman\Documents\CADENCE\test1\test1-pspicefiles\clampers\transient.sim ] 


 ****     CIRCUIT DESCRIPTION


******************************************************************************




** Creating circuit file "Transient.cir" 
** WARNING: THIS AUTOMATICALLY GENERATED FILE MAY BE OVERWRITTEN BY SUBSEQUENT SIMULATIONS

*Libraries: 
* Profile Libraries :
* Local Libraries :
* From [PSPICE NETLIST] section of C:\DOCUMENTS\CADENCE\cdssetup\OrCAD_PSpice\17.4.0\PSpice.ini file:
.lib "nom.lib" 

*Analysis directives: 
.TRAN  0 5m 0 1u 
.OPTIONS ADVCONV
.PROBE64 V(alias(*)) I(alias(*)) W(alias(*)) D(alias(*)) NOISE(alias(*)) 
.INC "..\Clampers.net" 



**** INCLUDING Clampers.net ****
* source TEST1
C_C1         N00044 VOUT1  1n  TC=0,0 
V_V1         N00044 0  
+SIN 0 5 1k 0 0 0
D_D1         VOUT1 0 Dbreak 
C_C2         N00834 VOUT2  1n  TC=0,0 
V_V2         0 N00834  
+SIN 0 5 1k 0 0 0
D_D2         0 VOUT2 Dbreak 

**** RESUMING Transient.cir ****
.END

**** 01/28/22 15:56:58 ******* PSpice 17.4.0 (Nov 2018) ******* ID# 0 ********

 ** Profile: "Clampers-Transient"  [ C:\Users\Abdurrahman\Documents\CADENCE\test1\test1-pspicefiles\clampers\transient.sim ] 


 ****     Diode MODEL PARAMETERS


******************************************************************************




               Dbreak          
          IS   10.000000E-15 
          RS     .1          
         CJO  100.000000E-15 


**** 01/28/22 15:56:58 ******* PSpice 17.4.0 (Nov 2018) ******* ID# 0 ********

 ** Profile: "Clampers-Transient"  [ C:\Users\Abdurrahman\Documents\CADENCE\test1\test1-pspicefiles\clampers\transient.sim ] 


 ****     INITIAL TRANSIENT SOLUTION       TEMPERATURE =   27.000 DEG C


******************************************************************************



 NODE   VOLTAGE     NODE   VOLTAGE     NODE   VOLTAGE     NODE   VOLTAGE


(VOUT1) 121.7E-18  (VOUT2)-122.5E-18  (N00044)    0.0000 (N00834)    0.0000 




    VOLTAGE SOURCE CURRENTS
    NAME         CURRENT

    V_V1         0.000E+00
    V_V2         0.000E+00

    TOTAL POWER DISSIPATION   0.00E+00  WATTS



          JOB CONCLUDED

**** 01/28/22 15:56:58 ******* PSpice 17.4.0 (Nov 2018) ******* ID# 0 ********

 ** Profile: "Clampers-Transient"  [ C:\Users\Abdurrahman\Documents\CADENCE\test1\test1-pspicefiles\clampers\transient.sim ] 


 ****     JOB STATISTICS SUMMARY


******************************************************************************



  Total job time (using Solver 1)   =         .05
