
**** 12/04/22 19:44:00 ******* PSpice 17.4.0 (Nov 2018) ******* ID# 0 ********

 ** Profile: "root-root_tran9"  [ D:\cad\cadence\EED3009-PSpiceFiles\root\root_tran9.sim ] 


 ****     CIRCUIT DESCRIPTION


******************************************************************************




** Creating circuit file "root_tran9.cir" 
** WARNING: THIS AUTOMATICALLY GENERATED FILE MAY BE OVERWRITTEN BY SUBSEQUENT SIMULATIONS

*Libraries: 
* Profile Libraries :
* Local Libraries :
.INC "C:/Users/Abdurrahman/Desktop/cd4007/cd4007.lib" 
* From [PSPICE NETLIST] section of D:\cad\cadence\cdssetup\OrCAD_PSpice\17.4.0\PSpice.ini file:

**** INCLUDING cd4007.lib ****
.model nnMOS NMOS (LEVEL=2 VTo=1.4 Kp=.6m LAMBDA=0.005)
.model ppMOS PMOS (LEVEL=2 VTo=-1.0 KP=.6m LAMBDA=0.01)

**** RESUMING root_tran9.cir ****
.lib "nom.lib" 

*Analysis directives: 
.TRAN  0 20ms 0 
.OPTIONS ADVCONV
.OPTIONS ABSTOL= 1.0n
.OPTIONS DIGINITSTATE= 0
.OPTIONS GMIN= 1.0E-9
.OPTIONS VNTOL= 1.0m
.PROBE64 V(alias(*)) I(alias(*)) W(alias(*)) D(alias(*)) NOISE(alias(*)) 
.INC "..\root.net" 



**** INCLUDING root.net ****
* source EED3009
C_C_eq         N293890 VO-  1.82nF  TC=0,0 
M_M4         VO+ SOUND VDD VDD ppMOS           
M_M3         VO+ SOUND 0 0 nnMOS           
R_R21         N29217 VDD  1k TC=0,0 
R_R12         N29991 N29853  3.6k TC=0,0 
C_C21         0 N29421  330pF IC=-1.65V TC=0,0 
X_U1         0 N29991 N29999 VDD N30031 N29991 N29853 VDD 555C
M_M6         VO- /SOUND VDD VDD ppMOS           
X_U2A         N29999 TRANSMIT $G_DPWR $G_DGND 74HC14 PARAMS:
+ IO_LEVEL=0 MNTYMXDLY=0
M_M1         /SOUND SOUND 0 0 nnMOS           
X_U3         0 N29421 SOUND TRANSMIT N29551 N29421 N29217 VDD 555C
M_M2         /SOUND SOUND VDD VDD ppMOS           
C_C12         0 N30031  10n  TC=0,0 
C_C22         0 N29551  10n  TC=0,0 
M_M5         VO- /SOUND 0 0 nnMOS           
R_R_esr         VO+ N293890  10 TC=0,0 
C_C11         0 N29991  100nF IC=-1.65V TC=0,0 
X_CD4026_1_U3         CD4026_1_N004852 C_CLK N32613 M_UN0001 $G_DPWR $G_DGND
+  DFF
X_CD4026_1_U2         N32655 N32667 CD4026_1_N004852  $G_DPWR $G_DGND AND2
X_CD4026_1_U1A         C_CLK N32745 $D_HI N32655 N32659 N32663 N32667
+  $G_CD4000_VDD $G_CD4000_VSS CD4518B PARAMS:
+ IO_LEVEL=0 MNTYMXDLY=0
X_CD4026_2_U3         CD4026_2_N004852 N32613 N84729 M_UN0002 $G_DPWR $G_DGND
+  DFF
X_CD4026_2_U2         N32671 N32683 CD4026_2_N004852  $G_DPWR $G_DGND AND2
X_CD4026_2_U1A         N32613 N32745 $D_HI N32671 N32675 N32679 N32683
+  $G_CD4000_VDD $G_CD4000_VSS CD4518B PARAMS:
+ IO_LEVEL=0 MNTYMXDLY=0
R_R52         N74666 N74582  3.3k TC=0,0 
C_C51         0 N74666  1nF IC=-1.65V TC=0,0 
C_C52         0 N74696  10n  TC=0,0 
X_U7         ECHO_D TRANSMIT N32745 $G_DPWR $G_DGND OR2
R_R51         VDD N74582  3890 TC=0,0 
X_U5         0 N74666 C_CLK VDD N74696 N74666 N74582 VDD 555C
C_C62         0 VDD  0.1uF  TC=0,0 
C_C61         0 N86762  0.33pF  TC=0,0 
X_U6         N86762 VDD 0 LM7805C
V_V1         N86762 0 9V
R_R73         N97606 N97476  1k TC=0,0 
X_U7B         N98046 VLP VLP VDD 0 awblm358 PARAMS: AVOL=1E+5 VOS=2E-3 GBW=1E+6
+  IBOS=5E-9 IB=45E-9 CMRR=3.16228E+3 PSRR=1E+5 SR=0.5E+6 ISOURCE=40E-3 VPDIF=1
R_R71         N97606 VDD  10k TC=0,0 
C_C71         ECHO_A N97606  1uF IC=-2.50V TC=0,0 
R_R83         VPC VDD  1k TC=0,0 
R_R105         0 N98078  30k TC=0,0 
X_U8A         N97556 REF_2V5 VDD 0 VPC LM393
R_R102         N97588 ECHO_D  40k TC=0,0 
R_R81         VPA N97556  10k TC=0,0 
R_R61         REF_2V5 VDD  10k TC=0,0 
R_R91         VPC N98046  33k TC=0,0 
R_R103         ECHO_D VDD  1k TC=0,0 
R_R104         N98078 VDD  20k TC=0,0 
C_C91         0 N98046  1n  TC=0,0 
R_R72         0 N97606  10k TC=0,0 
R_R101         VLP N97588  10k TC=0,0 
X_U8B         N97588 N98078 VDD 0 ECHO_D LM393
R_R82         N97556 VPC  100k TC=0,0 
R_R9         N97476 VPA  22k TC=0,0 
X_U7A         REF_2V5 N97476 VPA VDD 0 awblm358 PARAMS: AVOL=1E+5 VOS=2E-3
+  GBW=1E+6 IBOS=5E-9 IB=45E-9 CMRR=3.16228E+3 PSRR=1E+5 SR=0.5E+6 ISOURCE=40E-3
+  VPDIF=1
C_C64         0 REF_2V5  100uF  TC=0,0 
R_R62         0 REF_2V5  10k TC=0,0 
C_C63         REF_2V5 VDD  100uF  TC=0,0 
X_D2         N109008 0 LED PARAMS: IS=1.7603e-27 RS=2  BV=5 IBV=10e-6         
R_R18         N109008 0  10k TC=0,0 
R_R11         N29853 VDD  91k TC=0,0 
R_R22         N29217 N29421  54.66k TC=0,0 
R_R3         N130528 N130552  100k TC=0,0 
C_C1         N1304641 N130528  300p  TC=0,0 
V_V3         N130552 0 2.5V
C_out_signal_C22         0 out_signal_N123881  10n  TC=0,0 
R_out_signal_R22         out_signal_N123613 out_signal_N123785  54.66k TC=0,0 
X_out_signal_U3         0 out_signal_N123785 N1304641 N130514
+  out_signal_N123881 out_signal_N123785 out_signal_N123613 VDD 555C
R_out_signal_R21         out_signal_N123613 VDD  1k TC=0,0 
C_out_signal_C21         0 out_signal_N123785  330pF IC=-1.65V TC=0,0 
R_R1         0 ECHO_A  100k TC=0,0 
E_E1         ECHO_A 0 N130528 N130552 0.1
U_DSTM1         STIM(1,1) $G_DPWR $G_DGND N131716 IO_STM IO_LEVEL=0 
+ 0 0
+ +25us 1
+REPEAT FOREVER
+ +25us 0
+  +25us 1
+ ENDREPEAT
X_delaydd_U6         delaydd_N00908 N131716 delaydd_N00912 M_UN0003 VDD 0 DFF
X_delaydd_U5         delaydd_N00904 N131716 delaydd_N00908 M_UN0004 VDD 0 DFF
X_delaydd_U10         delaydd_N00924 N131716 N130514 0 VDD 0 DFF
X_delaydd_U9         delaydd_N00920 N131716 delaydd_N00924 M_UN0005 VDD 0 DFF
X_delaydd_U4         delaydd_N00900 N131716 delaydd_N00904 M_UN0006 VDD 0 DFF
X_delaydd_U3         delaydd_N00896 N131716 delaydd_N00900 M_UN0007 VDD 0 DFF
X_delaydd_U1         TRANSMIT N131716 delaydd_N00892 M_UN0008 VDD 0 DFF
X_delaydd_U8         delaydd_N00916 N131716 delaydd_N00920 M_UN0009 VDD 0 DFF
X_delaydd_U2         delaydd_N00892 N131716 delaydd_N00896 M_UN0010 VDD 0 DFF
X_delaydd_U7         delaydd_N00912 N131716 delaydd_N00916 M_UN0011 VDD 0 DFF

**** RESUMING root_tran9.cir ****
.END


**** Generated AtoD and DtoA Interfaces ****

*
* Analog/Digital interface for node 0
*
* Moving X_delaydd_U10.U1:QBAR1 from analog node 0 to new digital node 0$DtoA
X$0_DtoA1
+ 0$DtoA
+ 0
+ VDD
+ 0
+ DtoAdefault
+       PARAMS: DRVH=  50     DRVL=  50     CAPACITANCE=   0     
*
* Analog/Digital interface for node ECHO_D
*
* Moving X_U7.U1:IN1 from analog node ECHO_D to new digital node ECHO_D$AtoD
X$ECHO_D_AtoD1
+ ECHO_D
+ ECHO_D$AtoD
+ $G_DPWR
+ $G_DGND
+ AtoDdefault
+       PARAMS: CAPACITANCE=   0     
*
* Analog/Digital interface for node N29999
*
* Moving X_U2A.U1:IN1 from analog node N29999 to new digital node N29999$AtoD
X$N29999_AtoD1
+ N29999
+ N29999$AtoD
+ $G_DPWR
+ $G_DGND
+ AtoD_HC_ST
+       PARAMS: CAPACITANCE=   3.5000E-12
*
* Analog/Digital interface for node TRANSMIT
*
* Moving X_delaydd_U1.U1:D1 from analog node TRANSMIT to new digital node TRANSMIT$AtoD
X$TRANSMIT_AtoD1
+ TRANSMIT
+ TRANSMIT$AtoD
+ VDD
+ 0
+ AtoDdefault
+       PARAMS: CAPACITANCE=   0     
* Moving X_U7.U1:IN2 from analog node TRANSMIT to new digital node TRANSMIT$AtoD2
X$TRANSMIT_AtoD2
+ TRANSMIT
+ TRANSMIT$AtoD2
+ $G_DPWR
+ $G_DGND
+ AtoDdefault
+       PARAMS: CAPACITANCE=   0     
* Moving X_U2A.U1:OUT1 from analog node TRANSMIT to new digital node TRANSMIT$DtoA
X$TRANSMIT_DtoA1
+ TRANSMIT$DtoA
+ TRANSMIT
+ $G_DPWR
+ $G_DGND
+ DtoA_HC
+       PARAMS: DRVH=  87     DRVL=  87     CAPACITANCE=   0     
*
* Analog/Digital interface for node C_CLK
*
* Moving X_CD4026_1_U1A.UCD4518BLOG:IN1 from analog node C_CLK to new digital node C_CLK$AtoD
X$C_CLK_AtoD1
+ C_CLK
+ C_CLK$AtoD
+ $G_CD4000_VDD
+ $G_CD4000_VSS
+ AtoD_4000B
+       PARAMS: CAPACITANCE=   0     
* Moving X_CD4026_1_U3.U1:CLK from analog node C_CLK to new digital node C_CLK$AtoD2
X$C_CLK_AtoD2
+ C_CLK
+ C_CLK$AtoD2
+ $G_DPWR
+ $G_DGND
+ AtoDdefault
+       PARAMS: CAPACITANCE=   0     
*
* Analog/Digital interface for node N130514
*
* Moving X_delaydd_U10.U1:Q1 from analog node N130514 to new digital node N130514$DtoA
X$N130514_DtoA1
+ N130514$DtoA
+ N130514
+ VDD
+ 0
+ DtoAdefault
+       PARAMS: DRVH=  50     DRVL=  50     CAPACITANCE=   0     
*
* Analog/Digital interface power supply subcircuits
*
X$CD4000_PWR 0 CD4000_PWR
X$DIGIFPWR 0 DIGIFPWR


**** 12/04/22 19:44:00 ******* PSpice 17.4.0 (Nov 2018) ******* ID# 0 ********

 ** Profile: "root-root_tran9"  [ D:\cad\cadence\EED3009-PSpiceFiles\root\root_tran9.sim ] 


 ****     Diode MODEL PARAMETERS


******************************************************************************




               X_U1.DIODE      X_U3.DIODE      X_U5.DIODE      X_D2.model201   
          IS   10.000000E-15   10.000000E-15   10.000000E-15    1.760300E-27 
           N                                                    2            
          BV                                                    5            
         IBV                                                   10.000000E-06 
          RS     .01             .01             .01            2            


               X_out_signal_U3.DIODE           X_U6.x1.Dlim    X_U6.x1.Dz      
          IS   10.000000E-15                   10.000000E-15   50.000000E-15 
          BV                    7.11         
         IBV                   50.000000E-09 
          RS     .01                                            3            
          VJ     .7                          


               X_U8A.x_lm393.dx 
          IS  800.000000E-18 
          RS    1            


               X_U8B.x_lm393.dx                D74CLMP         
          IS  800.000000E-18                    1.000000E-15 
          RS    1                               2            
         CJO    2.000000E-12 


**** 12/04/22 19:44:00 ******* PSpice 17.4.0 (Nov 2018) ******* ID# 0 ********

 ** Profile: "root-root_tran9"  [ D:\cad\cadence\EED3009-PSpiceFiles\root\root_tran9.sim ] 


 ****     BJT MODEL PARAMETERS


******************************************************************************




               X_U6.x1.Npn1    X_U8A.x_lm393.qin 
               NPN             PNP             
       LEVEL    1               1            
          IS   10.000000E-15  800.000000E-18 
          BF   50               2.000000E+03 
          NF    1               1            
          BR    1               1            
          NR    1               1            
         ISS    0               0            
          RE    0               0            
          RC    0               0            
         CJE    0               0            
         VJE     .75             .75         
         CJC    0               0            
         VJC     .75             .75         
         MJC     .33             .33         
        XCJC    1               1            
         CJS    0               0            
         VJS     .75             .75         
          KF    0               0            
          AF    1               1            
          CN    2.42            2.2          
           D     .87             .52         


               X_U8A.x_lm393.qmi 
               NPN             
       LEVEL    1            
          IS  800.000000E-18 
          BF    1.002000E+03 
          NF    1            
          BR    1            
          NR    1            
         ISS    0            
          RE    0            
          RC    0            
         CJE    0            
         VJE     .75         
         CJC    0            
         VJC     .75         
         MJC     .33         
        XCJC    1            
         CJS    0            
         VJS     .75         
          KF    0            
          AF    1            
          CN    2.42         
           D     .87         


               X_U8A.x_lm393.qmo 
               NPN             
       LEVEL    1            
          IS  800.000000E-18 
          BF    1.000000E+03 
          NF    1            
          BR    1            
          NR    1            
         ISS    0            
          RE    0            
          RC    0            
         CJE    0            
         VJE     .75         
         CJC    1.000000E-15 
         VJC     .75         
         MJC     .33         
        XCJC    1            
         CJS    0            
         VJS     .75         
          TR  475.400000E-09 
          KF    0            
          AF    1            
          CN    2.42         
           D     .87         


               X_U8A.x_lm393.qoc 
               NPN             
       LEVEL    1            
          IS  800.000000E-18 
          BF   20.690000E+03 
          NF    1            
          BR    1            
          NR    1            
         ISS    0            
          RE    0            
          RC    0            
         CJE    0            
         VJE     .75         
         CJC    1.000000E-15 
         VJC     .75         
         MJC     .33         
        XCJC    1            
         CJS    0            
         VJS     .75         
          TF    3.540000E-09 
          TR  472.800000E-09 
          KF    0            
          AF    1            
          CN    2.42         
           D     .87         


               X_U8B.x_lm393.qin 
               PNP             
       LEVEL    1            
          IS  800.000000E-18 
          BF    2.000000E+03 
          NF    1            
          BR    1            
          NR    1            
         ISS    0            
          RE    0            
          RC    0            
         CJE    0            
         VJE     .75         
         CJC    0            
         VJC     .75         
         MJC     .33         
        XCJC    1            
         CJS    0            
         VJS     .75         
          KF    0            
          AF    1            
          CN    2.2          
           D     .52         


               X_U8B.x_lm393.qmi 
               NPN             
       LEVEL    1            
          IS  800.000000E-18 
          BF    1.002000E+03 
          NF    1            
          BR    1            
          NR    1            
         ISS    0            
          RE    0            
          RC    0            
         CJE    0            
         VJE     .75         
         CJC    0            
         VJC     .75         
         MJC     .33         
        XCJC    1            
         CJS    0            
         VJS     .75         
          KF    0            
          AF    1            
          CN    2.42         
           D     .87         


               X_U8B.x_lm393.qmo 
               NPN             
       LEVEL    1            
          IS  800.000000E-18 
          BF    1.000000E+03 
          NF    1            
          BR    1            
          NR    1            
         ISS    0            
          RE    0            
          RC    0            
         CJE    0            
         VJE     .75         
         CJC    1.000000E-15 
         VJC     .75         
         MJC     .33         
        XCJC    1            
         CJS    0            
         VJS     .75         
          TR  475.400000E-09 
          KF    0            
          AF    1            
          CN    2.42         
           D     .87         


               X_U8B.x_lm393.qoc 
               NPN             
       LEVEL    1            
          IS  800.000000E-18 
          BF   20.690000E+03 
          NF    1            
          BR    1            
          NR    1            
         ISS    0            
          RE    0            
          RC    0            
         CJE    0            
         VJE     .75         
         CJC    1.000000E-15 
         VJC     .75         
         MJC     .33         
        XCJC    1            
         CJS    0            
         VJS     .75         
          TF    3.540000E-09 
          TR  472.800000E-09 
          KF    0            
          AF    1            
          CN    2.42         
           D     .87         


**** 12/04/22 19:44:00 ******* PSpice 17.4.0 (Nov 2018) ******* ID# 0 ********

 ** Profile: "root-root_tran9"  [ D:\cad\cadence\EED3009-PSpiceFiles\root\root_tran9.sim ] 


 ****     Junction FET MODEL PARAMETERS


******************************************************************************




               X_U1.JNEMOD     X_U3.JNEMOD     X_U5.JNEMOD     
               NJF             NJF             NJF             
         VTO   -2.5            -2.5            -2.5          
        BETA    5.120000E-06    5.120000E-06    5.120000E-06 


               X_out_signal_U3.JNEMOD 
               NJF             
         VTO   -2.5          
        BETA    5.120000E-06 


**** 12/04/22 19:44:00 ******* PSpice 17.4.0 (Nov 2018) ******* ID# 0 ********

 ** Profile: "root-root_tran9"  [ D:\cad\cadence\EED3009-PSpiceFiles\root\root_tran9.sim ] 


 ****     MOSFET MODEL PARAMETERS


******************************************************************************




               nnMOS           ppMOS           X_U1.PCHAN555   X_U1.NCHAN555   
               NMOS            PMOS            PMOS            NMOS            
       LEVEL    2               2               1               1            
           L  100.000000E-06  100.000000E-06  100.000000E-06  100.000000E-06 
           W  100.000000E-06  100.000000E-06  100.000000E-06  100.000000E-06 
         VTO    1.4            -1               -.2              .2          
          KP  600.000000E-06  600.000000E-06   20.000000E-06   20.000000E-06 
       GAMMA    0               0               0               0            
         PHI     .6              .6              .6              .6          
      LAMBDA    5.000000E-03     .01            0               0            
          IS   10.000000E-15   10.000000E-15   10.000000E-15   10.000000E-15 
          JS    0               0               0               0            
          PB     .8              .8              .8              .8          
        PBSW     .8              .8              .8              .8          
          CJ    0               0               0               0            
        CJSW    0               0               0               0            
        CGSO    0               0               1.000000E-12    1.000000E-12 
        CGDO    0               0               1.000000E-12    1.000000E-12 
        CGBO    0               0               1.000000E-12    1.000000E-12 
         TOX  100.000000E-09  100.000000E-09    0               0            
          XJ    0               0               0               0            
       UCRIT   10.000000E+03   10.000000E+03   10.000000E+03   10.000000E+03 
      DIOMOD    1               1               1               1            
         VFB    0               0               0               0            
        LETA    0               0               0               0            
        WETA    0               0               0               0            
          U0    0               0               0               0            
        TEMP    0               0               0               0            
         VDD    5               5               5               5            
       XPART    0               0               0               0            


               X_U1.PCHAN555_OUT               X_U3.PCHAN555   X_U3.NCHAN555   
               PMOS                            PMOS            NMOS            
       LEVEL    1                               1               1            
           L  100.000000E-06                  100.000000E-06  100.000000E-06 
           W  100.000000E-06                  100.000000E-06  100.000000E-06 
         VTO    -.2                             -.2              .2          
          KP   20.000000E-06                   20.000000E-06   20.000000E-06 
       GAMMA    0                               0               0            
         PHI     .6                              .6              .6          
      LAMBDA    0                               0               0            
          IS   10.000000E-15                   10.000000E-15   10.000000E-15 
          JS    0                               0               0            
          PB     .8                              .8              .8          
        PBSW     .8                              .8              .8          
         CBD  200.000000E-12                                                 
          CJ    0                               0               0            
        CJSW    0                               0               0            
        CGSO    1.000000E-12                    1.000000E-12    1.000000E-12 
        CGDO    1.000000E-12                    1.000000E-12    1.000000E-12 
        CGBO    1.000000E-12                    1.000000E-12    1.000000E-12 
         TOX    0                               0               0            
          XJ    0                               0               0            
       UCRIT   10.000000E+03                   10.000000E+03   10.000000E+03 
      DIOMOD    1                               1               1            
         VFB    0                               0               0            
        LETA    0                               0               0            
        WETA    0                               0               0            
          U0    0                               0               0            
        TEMP    0                               0               0            
         VDD    5                               5               5            
       XPART    0                               0               0            


               X_U3.PCHAN555_OUT               X_U5.PCHAN555   X_U5.NCHAN555   
               PMOS                            PMOS            NMOS            
       LEVEL    1                               1               1            
           L  100.000000E-06                  100.000000E-06  100.000000E-06 
           W  100.000000E-06                  100.000000E-06  100.000000E-06 
         VTO    -.2                             -.2              .2          
          KP   20.000000E-06                   20.000000E-06   20.000000E-06 
       GAMMA    0                               0               0            
         PHI     .6                              .6              .6          
      LAMBDA    0                               0               0            
          IS   10.000000E-15                   10.000000E-15   10.000000E-15 
          JS    0                               0               0            
          PB     .8                              .8              .8          
        PBSW     .8                              .8              .8          
         CBD  200.000000E-12                                                 
          CJ    0                               0               0            
        CJSW    0                               0               0            
        CGSO    1.000000E-12                    1.000000E-12    1.000000E-12 
        CGDO    1.000000E-12                    1.000000E-12    1.000000E-12 
        CGBO    1.000000E-12                    1.000000E-12    1.000000E-12 
         TOX    0                               0               0            
          XJ    0                               0               0            
       UCRIT   10.000000E+03                   10.000000E+03   10.000000E+03 
      DIOMOD    1                               1               1            
         VFB    0                               0               0            
        LETA    0                               0               0            
        WETA    0                               0               0            
          U0    0                               0               0            
        TEMP    0                               0               0            
         VDD    5                               5               5            
       XPART    0                               0               0            


               X_U5.PCHAN555_OUT 
               PMOS            
       LEVEL    1            
           L  100.000000E-06 
           W  100.000000E-06 
         VTO    -.2          
          KP   20.000000E-06 
       GAMMA    0            
         PHI     .6          
      LAMBDA    0            
          IS   10.000000E-15 
          JS    0            
          PB     .8          
        PBSW     .8          
         CBD  200.000000E-12 
          CJ    0            
        CJSW    0            
        CGSO    1.000000E-12 
        CGDO    1.000000E-12 
        CGBO    1.000000E-12 
         TOX    0            
          XJ    0            
       UCRIT   10.000000E+03 
      DIOMOD    1            
         VFB    0            
        LETA    0            
        WETA    0            
          U0    0            
        TEMP    0            
         VDD    5            
       XPART    0            


               X_out_signal_U3.PCHAN555 
               PMOS            
       LEVEL    1            
           L  100.000000E-06 
           W  100.000000E-06 
         VTO    -.2          
          KP   20.000000E-06 
       GAMMA    0            
         PHI     .6          
      LAMBDA    0            
          IS   10.000000E-15 
          JS    0            
          PB     .8          
        PBSW     .8          
          CJ    0            
        CJSW    0            
        CGSO    1.000000E-12 
        CGDO    1.000000E-12 
        CGBO    1.000000E-12 
         TOX    0            
          XJ    0            
       UCRIT   10.000000E+03 
      DIOMOD    1            
         VFB    0            
        LETA    0            
        WETA    0            
          U0    0            
        TEMP    0            
         VDD    5            
       XPART    0            


               X_out_signal_U3.NCHAN555 
               NMOS            
       LEVEL    1            
           L  100.000000E-06 
           W  100.000000E-06 
         VTO     .2          
          KP   20.000000E-06 
       GAMMA    0            
         PHI     .6          
      LAMBDA    0            
          IS   10.000000E-15 
          JS    0            
          PB     .8          
        PBSW     .8          
          CJ    0            
        CJSW    0            
        CGSO    1.000000E-12 
        CGDO    1.000000E-12 
        CGBO    1.000000E-12 
         TOX    0            
          XJ    0            
       UCRIT   10.000000E+03 
      DIOMOD    1            
         VFB    0            
        LETA    0            
        WETA    0            
          U0    0            
        TEMP    0            
         VDD    5            
       XPART    0            


               X_out_signal_U3.PCHAN555_OUT 
               PMOS            
       LEVEL    1            
           L  100.000000E-06 
           W  100.000000E-06 
         VTO    -.2          
          KP   20.000000E-06 
       GAMMA    0            
         PHI     .6          
      LAMBDA    0            
          IS   10.000000E-15 
          JS    0            
          PB     .8          
        PBSW     .8          
         CBD  200.000000E-12 
          CJ    0            
        CJSW    0            
        CGSO    1.000000E-12 
        CGDO    1.000000E-12 
        CGBO    1.000000E-12 
         TOX    0            
          XJ    0            
       UCRIT   10.000000E+03 
      DIOMOD    1            
         VFB    0            
        LETA    0            
        WETA    0            
          U0    0            
        TEMP    0            
         VDD    5            
       XPART    0            


**** 12/04/22 19:44:00 ******* PSpice 17.4.0 (Nov 2018) ******* ID# 0 ********

 ** Profile: "root-root_tran9"  [ D:\cad\cadence\EED3009-PSpiceFiles\root\root_tran9.sim ] 


 ****     Voltage Controlled Switch MODEL PARAMETERS


******************************************************************************




               X_U6.x1.Sbg1    
         RON    1            
        ROFF    1.000000E+06 
         VON    3.7          
        VOFF    3            


**** 12/04/22 19:44:00 ******* PSpice 17.4.0 (Nov 2018) ******* ID# 0 ********

 ** Profile: "root-root_tran9"  [ D:\cad\cadence\EED3009-PSpiceFiles\root\root_tran9.sim ] 


 ****     Digital Input MODEL PARAMETERS


******************************************************************************




               DIN74           DIN74HC         
      S0NAME 0               0               
       S0TSW    3.500000E-09    5.000000E-09 
       S0RLO    7.13            1            
       S0RHI  389             100.000000E+03 
      S1NAME 1               1               
       S1TSW    5.500000E-09    5.000000E-09 
       S1RLO  467             100.000000E+03 
       S1RHI  200               1            
      S2NAME X               X               
       S2TSW    3.500000E-09    5.000000E-09 
       S2RLO   42.9           110            
       S2RHI  116             100            
      S3NAME R               R               
       S3TSW    3.500000E-09    5.000000E-09 
       S3RLO   42.9           110            
       S3RHI  116             100            
      S4NAME F               F               
       S4TSW    3.500000E-09    5.000000E-09 
       S4RLO   42.9           110            
       S4RHI  116             100            
      S5NAME Z               Z               
       S5TSW    3.500000E-09    5.000000E-09 
       S5RLO  200.000000E+03  200.000000E+03 
       S5RHI  200.000000E+03  200.000000E+03 


**** 12/04/22 19:44:00 ******* PSpice 17.4.0 (Nov 2018) ******* ID# 0 ********

 ** Profile: "root-root_tran9"  [ D:\cad\cadence\EED3009-PSpiceFiles\root\root_tran9.sim ] 


 ****     Digital Output MODEL PARAMETERS


******************************************************************************




               DO74            DO74HC_ST       DO4000B         
    TIMESTEP  100.000000E-12  100.000000E-12  100.000000E-12 
      S0NAME X               0               X               
       S0VHI    2                .55             .5          
       S0VLO     .8            -1.3             -.5          
      S1NAME 0               1               0               
       S1VHI     .8             1.3             -.5          
       S1VLO   -1.5              .33           -3            
      S2NAME R                               R               
       S2VHI    1.4                              .05         
       S2VLO     .8                             -.5          
      S3NAME R                               R               
       S3VHI    2                                .5          
       S3VLO    1.3                             -.05         
      S4NAME X                               X               
       S4VHI    2                                .5          
       S4VLO     .8                             -.5          
      S5NAME 1                               1               
       S5VHI    7                               3            
       S5VLO    2                                .5          
      S6NAME F                               F               
       S6VHI    2                                .5          
       S6VLO    1.3                             -.05         
      S7NAME F                               F               
       S7VHI    1.4                              .05         
       S7VLO     .8                             -.5          


**** 12/04/22 19:44:00 ******* PSpice 17.4.0 (Nov 2018) ******* ID# 0 ********

 ** Profile: "root-root_tran9"  [ D:\cad\cadence\EED3009-PSpiceFiles\root\root_tran9.sim ] 


 ****     Digital Gate MODEL PARAMETERS


******************************************************************************




               D_HC14          D0_GATE         D_PLD_GATE      
      TPLHMN    4.800000E-09    0               0            
      TPLHTY   12.000000E-09    0               0            
      TPLHMX   31.000000E-09    0               0            
      TPHLMN    4.800000E-09    0               0            
      TPHLTY   12.000000E-09    0               0            
      TPHLMX   31.000000E-09    0               0            


**** 12/04/22 19:44:00 ******* PSpice 17.4.0 (Nov 2018) ******* ID# 0 ********

 ** Profile: "root-root_tran9"  [ D:\cad\cadence\EED3009-PSpiceFiles\root\root_tran9.sim ] 


 ****     Digital Edge Triggered FF MODEL PARAMETERS


******************************************************************************




               D0_EFF          D_PLD_EFF       
  TPCLKQLHMN    0               0            
  TPCLKQLHTY    0               0            
  TPCLKQLHMX    0               0            
  TPCLKQHLMN    0               0            
  TPCLKQHLTY    0               0            
  TPCLKQHLMX    0               0            
   TPPCQLHMN    0               0            
   TPPCQLHTY    0               0            
   TPPCQLHMX    0               0            
   TPPCQHLMN    0               0            
   TPPCQHLTY    0               0            
   TPPCQHLMX    0               0            
    TWCLKLMN    0               0            
    TWCLKLTY    0               0            
    TWCLKLMX    0               0            
    TWCLKHMN    0               0            
    TWCLKHTY    0               0            
    TWCLKHMX    0               0            
     TWPCLMN    0               0            
     TWPCLTY    0               0            
     TWPCLMX    0               0            
   TSUDCLKMN    0               0            
   TSUDCLKTY    0               0            
   TSUDCLKMX    0               0            
 TSUPCCLKHMN    0               0            
 TSUPCCLKHTY    0               0            
 TSUPCCLKHMX    0               0            
    THDCLKMN    0               0            
    THDCLKTY    0               0            
    THDCLKMX    0               0            
  TSUCECLKMN    0               0            
  TSUCECLKTY    0               0            
  TSUCECLKMX    0               0            
   THCECLKMN    0               0            
   THCECLKTY    0               0            
   THCECLKMX    0               0            


**** 12/04/22 19:44:00 ******* PSpice 17.4.0 (Nov 2018) ******* ID# 0 ********

 ** Profile: "root-root_tran9"  [ D:\cad\cadence\EED3009-PSpiceFiles\root\root_tran9.sim ] 


 ****     Digital IO  MODEL PARAMETERS


******************************************************************************




               IO_STM          IO_HC_ST        IO_4000B        IO_PLD          
        INLD                    3.500000E-12                                 
        DRVL    0              87               1.443000E+03                 
        DRVH    0              87               1.443000E+03                 
       AtoD1                 AtoD_HC_ST      AtoD_4000B                      
       AtoD2                 AtoD_HC_ST      AtoD_4000B_NX                   
       AtoD3                 AtoD_HC_ST      AtoD_4000B                      
       AtoD4                 AtoD_HC_ST      AtoD_4000B_NX                   
       DtoA1 DtoA_STM        DtoA_HC         DtoA_4000B                      
       DtoA2 DtoA_STM        DtoA_HC         DtoA_4000B                      
       DtoA3 DtoA_STM        DtoA_HC_E       DtoA_4000B                      
       DtoA4 DtoA_STM        DtoA_HC_E       DtoA_4000B                      
    DIGPOWER                                 CD4000_PWR                      
      TSWHL1                    2.742000E-09    7.720000E-09                 
      TSWHL2                    2.742000E-09    7.860000E-09                 
      TSWHL3                    2.751000E-09    9.710000E-09                 
      TSWHL4                    2.751000E-09    9.630000E-09                 
      TSWLH1                    2.758000E-09    7.560000E-09                 
      TSWLH2                    2.758000E-09    7.400000E-09                 
      TSWLH3                    2.763000E-09    9.410000E-09                 
      TSWLH4                    2.763000E-09    9.240000E-09                 
       TPWRT  100.000000E+03    2.000000E-09  100.000000E+03  100.000000E+03 


               IO_DFT          IO_HC           IO_HC_DTOA      
        INLD                    3.500000E-12                 
        DRVL                   87                            
        DRVH                   87                            
       AtoD1 AtoD_STD        AtoD_HC                         
       AtoD2 AtoD_STD_NX     AtoD_HC_NX                      
       AtoD3 AtoD_STD        AtoD_HC                         
       AtoD4 AtoD_STD_NX     AtoD_HC_NX                      
       DtoA1 DtoA_STD        DtoA_HC                         
       DtoA2 DtoA_STD        DtoA_HC                         
       DtoA3 DtoA_STD        DtoA_HC_E                       
       DtoA4 DtoA_STD        DtoA_HC_E                       
      TSWHL1                    2.742000E-09                 
      TSWHL2                    2.742000E-09                 
      TSWHL3                    2.751000E-09                 
      TSWHL4                    2.751000E-09                 
      TSWLH1                    2.758000E-09                 
      TSWLH2                    2.758000E-09                 
      TSWLH3                    2.763000E-09                 
      TSWLH4                    2.763000E-09                 
       TPWRT  100.000000E+03    2.000000E-09  100.000000E+03 


Starting pseudo-transient algorithm.

ERROR -- Convergence problem in transient bias point calculation


  Last node voltages tried were:

 NODE   VOLTAGE     NODE   VOLTAGE     NODE   VOLTAGE     NODE   VOLTAGE


(  VDD)    6.5133  (  VLP)    5.5577  (  VO+)    6.5134  (  VO-)-177.6E-06      

(  VPA)    5.5364  (  VPC)    6.5060  (C_CLK)    2.4756  (SOUND) 117.2E-06      

(/SOUND)    6.5133 (ECHO_A) 4.602E-09 (ECHO_D)    6.4945 (N29217)     .1028     

(N29421)    1.4539 (N29551)    2.6173 (N29853)    1.1702 (N29991)     .9589     

(N29999)    5.5941 (N30031)    2.6173 (N74582)    4.4129 (N74666)    2.6243     

(N74696)    2.6173 (N86762)    9.0000 (N97476)    2.8478 (N97556)    5.6245     

(N97588)    5.7450 (N97606)    2.7255 (N98046)    6.5573 (N98078)    3.9085     

(X_U1.1)-3.994E-06 (X_U1.2)    1.3087 (X_U1.3) 3498.0000 (X_U1.4)    5.7133     

(X_U1.5)    5.5411 (X_U1.6)-16.58E+03 (X_U1.7)    5.7133 (X_U1.8)    -.6682     

(X_U1.9) 94.14E-09 (X_U3.1)    6.5132 (X_U3.2)    1.3087 (X_U3.3)-1452.4000     

(X_U3.4)    5.7133 (X_U3.5)    -.6052 (X_U3.6)-11.63E+03 (X_U3.7)    5.7133     

(X_U3.8)    -.6590 (X_U3.9)    6.5133 (X_U5.1)    2.6685 (X_U5.2)    1.3087     

(X_U5.3)-13.16E+03 (X_U5.4)    5.7133 (X_U5.5)    -.6622 (X_U5.6)   69.1950     

(X_U5.7)    5.7133 (X_U5.8)    5.4555 (X_U5.9)    5.2791 ($G_DGND)    0.0000    

($G_DPWR)    5.0000                   (N109008)    0.0000                       

(N130514)     .1172                   (N130528)    2.5000                       

(N130552)    2.5000                   (N293890)    6.5134                       

(REF_2V5)    3.2566                   (X_U1.10)    6.5133                       

(X_U1.11)    6.5132                   (X_U1.12)    6.5132                       

(X_U1.13)-3.994E-06                   (X_U1.14) 407.4E-09                       

(X_U1.15)    6.5133                   (X_U1.16)    6.5133                       

(X_U1.17)    6.5132                   (X_U1.18) 560.7E-09                       

(X_U1.19) 281.7E-09                   (X_U1.20)    6.5132                       

(X_U1.21)     .1318                   (X_U1.22)    3.2494                       

(X_U1.23)    6.3411                   (X_U1.24) 97.26E-09                       

(X_U1.25) 120.4E-09                   (X_U3.10) 372.2E-09                       

(X_U3.11)    6.5133                   (X_U3.12) 130.0E-09                       

(X_U3.13)    6.5132                   (X_U3.14)    6.5133                       

(X_U3.15)    6.5133                   (X_U3.16)    6.5133                       

(X_U3.17) 159.9E-09                   (X_U3.18) 635.6E-06                       

(X_U3.19) 361.2E-06                   (X_U3.20)    6.5132                       

(X_U3.21)     .1410                   (X_U3.22)    6.3119                       

(X_U3.23)     .1948                   (X_U3.24)    6.5132                       

(X_U3.25) 361.0E-06                   (X_U5.10)  -19.2580                       

(X_U5.11)    5.7668                   (X_U5.12) 102.7E-06                       

(X_U5.13)    2.6685                   (X_U5.14)    6.5132                       

(X_U5.15) 560.5E-06                   (X_U5.16)    6.5133                       

(X_U5.17) 75.55E-06                   (X_U5.18)    6.5125                       

(X_U5.19) 107.3E-09                   (X_U5.20) 1.601E-06                       

(X_U5.21)    6.2555                   (X_U5.22) 959.1E-09                       

(X_U5.23)     .1378                   (X_U5.24)    6.5132                       

(X_U5.25) 104.0E-09                   (N1304641)-5.971E-06                      

(TRANSMIT)    4.9975                  (X_U1.VDD)    6.5133                      

(X_U3.VDD)    6.5133                  (X_U5.VDD)    6.5133                      

(X_U6.x1.4)     .1419                 (X_U6.x1.5)    5.1130                     

(X_U6.x1.6)    6.5125                 (X_U6.x1.7)    6.5125                     

(X_U6.x1.8)    6.5418                 (X_U6.x1.9)    6.5132                     

(X_U6.x1.55)    5.7917                (X_U6.x1.56)    5.7917                    

(X_U6.x1.100)    7.4000               (X_U6.x1.101)    3.7004                   

(X_U6.x1.102)    9.0000               (X_U6.x1.105)-2566.3000                   

(X_U6.x1.106)     .1419               (X_U6.x1.107)    1.0000                   

(X_U6.x1.108)    8.0000               (X_U6.x1.200) 1665.0000                   

($G_CD4000_VDD)    5.0000             ($G_CD4000_VSS)    0.0000                 

(X_U8A.x_lm393.7)    4.6675           (X_U8A.x_lm393.8)     .6503               

(X_U8A.x_lm393.9)     .0179           (X_U8B.x_lm393.7)    5.3194               

(X_U8B.x_lm393.8)     .6503           (X_U8B.x_lm393.9)     .0179               

(X_U8A.x_lm393.10)     .0179          (X_U8A.x_lm393.11)     .0179              

(X_U8A.x_lm393.21)    6.3745          (X_U8A.x_lm393.22)    4.0066              

(X_U8B.x_lm393.10)     .0179          (X_U8B.x_lm393.11)     .0179              

(X_U8B.x_lm393.21)    6.4950          (X_U8B.x_lm393.22)    4.6585              

(X_out_signal_U3.1)    6.5132         (X_out_signal_U3.2)    1.3087             

(X_out_signal_U3.3) 12.06E+03         (X_out_signal_U3.4)    5.7133             

(X_out_signal_U3.5)    5.5732         (X_out_signal_U3.6)-25.15E+03             

(X_out_signal_U3.7)    5.7133         (X_out_signal_U3.8)    -.6790             

(X_out_signal_U3.9)    6.5133         (out_signal_N123613)     .1024            

(out_signal_N123785)     .1024        (out_signal_N123881)    2.6173            

(X$C_CLK_AtoD1.NORM)    -.0122        (X_out_signal_U3.10) 392.4E-09            

(X_out_signal_U3.11)    6.5133        (X_out_signal_U3.12) 51.60E-09            

(X_out_signal_U3.13)    6.5132        (X_out_signal_U3.14)    6.5133            

(X_out_signal_U3.15)    3.2582        (X_out_signal_U3.16)     .2012            

(X_out_signal_U3.17) 97.89E-09        (X_out_signal_U3.18)    6.5132            

(X_out_signal_U3.19)    6.3127        (X_out_signal_U3.20)    6.5132            

(X_out_signal_U3.21)     .1210        (X_out_signal_U3.22)    3.2550            

(X_out_signal_U3.23)    6.3732        (X_out_signal_U3.24) 88.20E-09            

(X_out_signal_U3.25)    6.5132        (X_U7A.xinstlm358.1)     .0795            

(X_U7A.xinstlm358.2)    3.4595        (X_U7A.xinstlm358.4) 35.81E-06            

(X_U7A.xinstlm358.5)    3.4874        (X_U7A.xinstlm358.6)    3.2566            

(X_U7A.xinstlm358.7) 1000.0000        (X_U7A.xinstlm358.9)    4.6166            

(X_U7B.xinstlm358.1)     .0784        (X_U7B.xinstlm358.2)    6.1691            

(X_U7B.xinstlm358.4) 67.66E-06        (X_U7B.xinstlm358.5)    6.1966            

(X_U7B.xinstlm358.6)    6.5572        (X_U7B.xinstlm358.7) 1000.0000            

(X_U7B.xinstlm358.9)    4.6166        (X$N29999_AtoD1.NORM)    1.1188           

(X_out_signal_U3.VDD)    6.5133       (X_U7A.xinstlm358.10)    5.5820           

(X_U7A.xinstlm358.11)    4.6142       (X_U7A.xinstlm358.12)    0.0000           

(X_U7A.xinstlm358.14)    3.0556       (X_U7A.xinstlm358.15)    3.0556           

(X_U7A.xinstlm358.16)    -.9654       (X_U7A.xinstlm358.17)    3.4874           

(X_U7A.xinstlm358.18)    1.5581       (X_U7A.xinstlm358.20) 40.03E-06           

(X_U7A.xinstlm358.21)    4.0407       (X_U7A.xinstlm358.22)    4.6363           

(X_U7A.xinstlm358.24) 1000.9000       (X_U7A.xinstlm358.25)    5.5820           

(X_U7A.xinstlm358.26)    6.3097       (X_U7A.xinstlm358.27)    4.8541           

(X_U7B.xinstlm358.10)    5.5813       (X_U7B.xinstlm358.11)    4.6135           

(X_U7B.xinstlm358.12)    0.0000       (X_U7B.xinstlm358.14)    3.0556           

(X_U7B.xinstlm358.15)    3.0556       (X_U7B.xinstlm358.16)    -.9647           

(X_U7B.xinstlm358.17)    6.1966       (X_U7B.xinstlm358.18)    1.5955           

(X_U7B.xinstlm358.20) 40.03E-06       (X_U7B.xinstlm358.21)    4.0620           

(X_U7B.xinstlm358.22)    4.6576       (X_U7B.xinstlm358.24) 1000.9000           

(X_U7B.xinstlm358.25)    5.5813       (X_U7B.xinstlm358.26)    6.3092           

(X_U7B.xinstlm358.27)    4.8534       (X$TRANSMIT_DtoA1.DGND_OL)     .0022      

(X$TRANSMIT_DtoA1.DPWR_OH)    4.9975  (X$C_CLK_AtoD1.XNORM.THRESHOLD)    1.5000 



 DGTL NODE : STATE  DGTL NODE : STATE  DGTL NODE : STATE  DGTL NODE : STATE


(X_CD4026_2_U1A.D1) : 1               (M_UN0006) : 1     (  N32659) : 0         

(X_CD4026_2_U1A.D2) : 1               (M_UN0003) : 1                            

(X_CD4026_2_U1A.RESET) : X            (X_CD4026_2_U1A.CLK4) : 1                 

(X_CD4026_1_U1A.D3) : 1               (TRANSMIT$AtoD2) : X                      

( N131716) : 0     (X_CD4026_2_U1A.Q4) : 0                                      

(X_CD4026_2_U1A.CLK1) : 0             (X_CD4026_1_U1A.CLK4) : 1                 

(delaydd_N00900) : 0                  (X_CD4026_1_U1A.D4) : 1                   

(X_CD4026_1_U1A.Q1BAR) : 1            (X_CD4026_2_U1A.Q1) : 0                   

(X_CD4026_1_U1A.CLK1) : X             (X_CD4026_2_U1A.CLK) : 0                  

(  N32671) : 0     (N130514$DtoA) : 0                    (delaydd_N00916) : 0   

(X_CD4026_2_U1A.Q2) : 0               (  N32655) : 0     (  N84729) : 0         

(X_CD4026_2_U1A.Q2BAR) : 1            (X_CD4026_1_U1A.Q3) : 0                   

(M_UN0010) : 1     (  N32613) : 0     (TRANSMIT$AtoD) : X                       

(   $D_HI) : 1     (X_CD4026_1_U1A.Q4) : 0               (C_CLK$AtoD) : X       

(M_UN0007) : 1     (N29999$AtoD) : 0  (X_CD4026_2_U1A.D3) : 1                   

(M_UN0004) : 1     (X_CD4026_1_U1A.RESETBAR) : X                                

(X_CD4026_1_U1A.Q4BAR) : 1            (delaydd_N00904) : 0                      

(  N32667) : 0     (delaydd_N00920) : 0                  (M_UN0001) : 1         

(X_CD4026_2_U1A.CLK2) : 1             (delaydd_N00892) : 0                      

(X_CD4026_2_U1A.Q1BAR) : 1            (X_CD4026_1_U1A.CLK2) : 1                 

(ECHO_D$AtoD) : 0  (X_CD4026_2_U1A.EN) : 1                                      

(X_CD4026_2_U1A.Q3) : 0               (  N32683) : 0     (M_UN0008) : 1         

(delaydd_N00908) : 0                  (M_UN0011) : 1     (CD4026_1_N004852) : 0 

(TRANSMIT$DtoA) : 1                   (X_CD4026_1_U1A.Q3BAR) : 1                

(C_CLK$AtoD2) : 0  (  N32663) : 0     (delaydd_N00924) : 0                      

(M_UN0005) : 1     (X_CD4026_2_U1A.Q4BAR) : 1                                   

(X_CD4026_1_U1A.D1) : 1               (X_CD4026_2_U1A.RESETBAR) : X             

(delaydd_N00896) : 0                  (  N32679) : 0                            

(X_CD4026_1_U1A.RESET) : X            (M_UN0002) : 1     (  N32745) : X         

(X_CD4026_2_U1A.CLK3) : 1             (X_CD4026_1_U1A.D2) : 1                   

(X_CD4026_1_U1A.EN) : 1               (X_CD4026_1_U1A.CLK3) : 1                 

(  0$DtoA) : 1     (CD4026_2_N004852) : 0                (M_UN0009) : 1         

(X_CD4026_1_U1A.Q1) : 0               (X_CD4026_1_U1A.CLK) : X                  

(X_CD4026_1_U1A.Q2BAR) : 1            (  N32675) : 0     (delaydd_N00912) : 0   

(X_CD4026_1_U1A.Q2) : 0               (X_CD4026_2_U1A.D4) : 1                   

(X_CD4026_2_U1A.Q3BAR) : 1            


  These voltages failed to converge:

    V(N293890)                =    3.247mV  \     6.513V
    V(VO+)                    =    3.247mV  \     6.513V
    V(VDD)                    =    3.247mV  \     6.513V
    V(N29217)                 =    5.555mV  \   102.77mV
    V(N29991)                 =     1.650V  \   958.87mV
    V(N29853)                 =     1.587V  \     1.170V
    V(N29421)                 =     1.650V  \     1.454V
    V(/SOUND)                 =    3.247mV  \     6.513V
    V(N30031)                 =    2.165mV  \     2.617V
    V(N29551)                 =    2.165mV  \     2.617V
    V(N74666)                 =     1.650V  \     2.624V
    V(N74582)                 =     4.882V  \     4.413V
    V(N74696)                 =    2.165mV  \     2.617V
    V(N97606)                 =     2.500V  \     2.726V
    V(N97476)                 =     2.264V  \     2.848V
    V(VPC)                    =   -23.16mV  \     6.506V
    V(N98078)                 =    2.547mV  \     3.909V
    V(N97588)                 =    -1.223V  \     5.745V
    V(ECHO_D)                 =   -26.67mV  \     6.495V
    V(VPA)                    =    -2.928V  \     5.536V
    V(N97556)                 =    -2.664V  \     5.625V
    V(REF_2V5)                =    1.873mV  \     3.257V
    V(N98046)                 =   -23.16mV  \     6.557V
    V(VLP)                    =    -1.522V  \     5.558V
    V(out_signal_N123881)     =    2.165mV  \     2.617V
    V(out_signal_N123613)     =    5.555mV  \   102.38mV
    V(out_signal_N123785)     =     1.650V  \   102.37mV
    V(X_U1.2)                 =    1.083mV  \     1.309V
    V(X_U1.VDD)               =    3.247mV  \     6.513V
    V(X_U1.3)                 =   -16.49KV  \    3.498KV
    V(X_U1.23)                =  -317.16mV  \     6.341V
    V(X_U1.4)                 =  -796.75mV  \     5.713V
    V(X_U1.5)                 =    -1.117V  \     5.541V
    V(X_U1.6)                 =    16.48KV  \   -16.59KV
    V(X_U1.21)                =   183.39mV  \   131.80mV
    V(X_U1.7)                 =  -796.75mV  \     5.713V
    V(X_U1.8)                 =  -616.61mV  \  -668.20mV
    V(N29999)                 =     5.452V  \     5.594V
    V(X_U1.17)                =    3.247mV  \     6.513V
    V(X_U1.10)                =    3.247mV  \     6.513V
    V(X_U1.11)                =    3.247mV  \     6.513V
    V(X_U1.12)                =    3.247mV  \     6.513V
    V(X_U1.15)                =    3.247mV  \     6.513V
    V(X_U1.16)                =    3.247mV  \     6.513V
    V(X_U1.20)                =    3.247mV  \     6.513V
    V(X_U1.22)                =    1.619mV  \     3.249V
    V(X_U3.2)                 =    1.083mV  \     1.309V
    V(X_U3.VDD)               =    3.247mV  \     6.513V
    V(X_U3.1)                 =    3.247mV  \     6.513V
    V(X_U3.13)                =    3.247mV  \     6.513V
    V(X_U3.3)                 =   -16.49KV  \   -1.452KV
    V(X_U3.23)                =   -72.93mV  \   194.80mV
    V(X_U3.4)                 =  -796.75mV  \     5.713V
    V(X_U3.5)                 =  -872.93mV  \  -605.21mV
    V(X_U3.6)                 =    16.48KV  \   -11.63KV
    V(X_U3.21)                =   203.50mV  \   140.97mV
    V(X_U3.7)                 =  -796.75mV  \     5.713V
    V(X_U3.8)                 =  -596.50mV  \  -659.03mV
    V(X_U3.9)                 =    3.247mV  \     6.513V
    V(X_U3.11)                =    3.247mV  \     6.513V
    V(X_U3.18)                =   -38.47mV  \   635.62uV
    V(X_U3.14)                =    3.247mV  \     6.513V
    V(X_U3.15)                =    3.247mV  \     6.513V
    V(X_U3.16)                =    3.247mV  \     6.513V
    V(X_U3.25)                =   -19.23mV  \   361.02uV
    V(X_U3.24)                =    3.247mV  \     6.513V
    V(X_U3.20)                =    3.267mV  \     6.513V
    V(TRANSMIT)               =     9.170V  \     4.998V
    V(X_U3.19)                =   -19.23mV  \   361.16uV
    V(X_U3.22)                =  -197.37mV  \     6.312V
    V(X_U5.2)                 =    1.083mV  \     1.309V
    V(X_U5.VDD)               =    3.247mV  \     6.513V
    V(X_U5.1)                 =    3.247mV  \     2.669V
    V(X_U5.13)                =    3.247mV  \     2.669V
    V(X_U5.3)                 =   -16.49KV  \   -13.16KV
    V(X_U5.23)                =   131.24mV  \   137.79mV
    V(X_U5.4)                 =  -796.75mV  \     5.713V
    V(X_U5.5)                 =  -668.76mV  \  -662.21mV
    V(X_U5.6)                 =    16.48KV  \     69.20V
    V(X_U5.21)                =     3.070V  \     6.256V
    V(X_U5.7)                 =  -796.75mV  \     5.713V
    V(X_U5.8)                 =     2.270V  \     5.456V
    V(X_U5.9)                 =   903.16mV  \     5.279V
    V(C_CLK)                  =    44.00uV  \     2.476V
    V(X_U5.10)                =    -1.350V  \    -19.26V
    V(X_U5.11)                =   453.20mV  \     5.767V
    V(X_U5.18)                =    3.247mV  \     6.513V
    V(X_U5.14)                =    3.247mV  \     6.513V
    V(X_U5.15)                =    1.628mV  \   560.53uV
    V(X_U5.16)                =    3.247mV  \     6.513V
    V(X_U5.24)                =    3.247mV  \     6.513V
    V(X_U5.20)                =   -1.523mV  \    1.601uV
    V(X_out_signal_U3.2)      =    1.083mV  \     1.309V
    V(X_out_signal_U3.VDD)    =    3.247mV  \     6.513V
    V(X_out_signal_U3.1)      =    3.247mV  \     6.513V
    V(X_out_signal_U3.13)     =    3.247mV  \     6.513V
    V(X_out_signal_U3.3)      =   -16.49KV  \    12.06KV
    V(X_out_signal_U3.23)     =  -198.10mV  \     6.373V
    V(X_out_signal_U3.4)      =  -796.75mV  \     5.713V
    V(X_out_signal_U3.5)      =    -0.998V  \     5.573V
    V(X_out_signal_U3.6)      =    16.48KV  \   -25.15KV
    V(X_out_signal_U3.21)     =   163.87mV  \   121.02mV
    V(X_out_signal_U3.7)      =  -796.75mV  \     5.713V
    V(X_out_signal_U3.8)      =  -636.13mV  \  -678.98mV
    V(X_out_signal_U3.9)      =    3.247mV  \     6.513V
    V(X_out_signal_U3.11)     =    3.247mV  \     6.513V
    V(X_out_signal_U3.18)     =    3.267mV  \     6.513V
    V(X_out_signal_U3.14)     =    3.247mV  \     6.513V
    V(X_out_signal_U3.15)     =    1.628mV  \     3.258V
    V(X_out_signal_U3.25)     =    3.247mV  \     6.513V
    V(X_out_signal_U3.20)     =    3.247mV  \     6.513V
    V(N130514)                =    58.45uV  \   117.23mV
    V(X_out_signal_U3.19)     =  -196.94mV  \     6.313V
    V(X_out_signal_U3.22)     =    1.619mV  \     3.255V
    V(X_U6.x1.101)            =    1.510mV  \     3.700V
    V(X_U6.x1.9)              =    3.238mV  \     6.513V
    V(X_U6.x1.8)              =    3.238mV  \     6.542V
    V(X_U6.x1.105)            =    -1.994V  \   -2.566KV
    V(X_U6.x1.106)            =    -1.994V  \   141.86mV
    V(X_U6.x1.5)              =  -825.29mV  \     5.113V
    V(X_U6.x1.6)              =    3.113mV  \     6.513V
    V(X_U6.x1.7)              =    3.077mV  \     6.513V
    V(X_U6.x1.4)              =    -1.994V  \   141.86mV
    V(X_U6.x1.55)             =  -166.42mV  \     5.792V
    V(X_U6.x1.56)             =  -166.33mV  \     5.792V
    V(X_U7B.xinstlm358.6)     =   -23.16mV  \     6.557V
    V(X_U7B.xinstlm358.26)    =  -773.93mV  \     6.309V
    V(X_U7B.xinstlm358.27)    =    -2.178V  \     4.853V
    V(X_U7B.xinstlm358.25)    =    -1.476V  \     5.581V
    V(X_U7B.xinstlm358.22)    =    -2.422V  \     4.658V
    V(X_U7B.xinstlm358.21)    =    -3.018V  \     4.062V
    V(X_U7B.xinstlm358.10)    =    -1.476V  \     5.581V
    V(X_U7B.xinstlm358.9)     =   183.88uV  \     4.617V
    V(X_U7B.xinstlm358.16)    =    -23.79V  \  -964.70mV
    V(X_U7B.xinstlm358.11)    =    -1.477V  \     4.614V
    V(X_U7B.xinstlm358.24)    =     1.617V  \    1.001KV
    V(X_U7B.xinstlm358.14)    =    -1.131V  \     3.056V
    V(X_U7B.xinstlm358.18)    =    -1.131V  \     1.596V
    V(X_U7B.xinstlm358.5)     =  -936.83mV  \     6.197V
    V(X_U7B.xinstlm358.1)     =    53.06uV  \    78.42mV
    V(X_U7B.xinstlm358.2)     =  -936.85mV  \     6.169V
    V(X_U7B.xinstlm358.15)    =    -1.131V  \     3.056V
    V(X_U7B.xinstlm358.17)    =  -936.83mV  \     6.197V
    V(X_U8A.x_lm393.7)        =     1.413V  \     4.668V
    V(X_U8A.x_lm393.21)       =    -1.914V  \     6.375V
    V(X_U8A.x_lm393.22)       =   751.87mV  \     4.007V
    V(X_U8B.x_lm393.7)        =     1.413V  \     5.319V
    V(X_U8B.x_lm393.21)       =  -473.26mV  \     6.495V
    V(X_U8B.x_lm393.22)       =   752.55mV  \     4.659V
    V(X_U7A.xinstlm358.6)     =    1.873mV  \     3.257V
    V(X_U7A.xinstlm358.26)    =    -2.197V  \     6.310V
    V(X_U7A.xinstlm358.27)    =    -3.601V  \     4.854V
    V(X_U7A.xinstlm358.25)    =    -2.899V  \     5.582V
    V(X_U7A.xinstlm358.22)    =    -3.828V  \     4.636V
    V(X_U7A.xinstlm358.21)    =    -4.424V  \     4.041V
    V(X_U7A.xinstlm358.10)    =    -2.899V  \     5.582V
    V(X_U7A.xinstlm358.9)     =   183.88uV  \     4.617V
    V(X_U7A.xinstlm358.16)    =     55.61V  \  -965.35mV
    V(X_U7A.xinstlm358.11)    =    -2.901V  \     4.614V
    V(X_U7A.xinstlm358.24)    =     1.617V  \    1.001KV
    V(X_U7A.xinstlm358.14)    =     2.650V  \     3.056V
    V(X_U7A.xinstlm358.18)    =     2.651V  \     1.558V
    V(X_U7A.xinstlm358.5)     =     2.850V  \     3.487V
    V(X_U7A.xinstlm358.1)     =    27.49uV  \    79.51mV
    V(X_U7A.xinstlm358.2)     =     2.850V  \     3.460V
    V(X_U7A.xinstlm358.15)    =     2.650V  \     3.056V
    V(X_U7A.xinstlm358.17)    =     2.850V  \     3.487V
    V(X$N29999_AtoD1.NORM)    =     1.091V  \     1.119V
    V(X$TRANSMIT_DtoA1.DPWR_OH) =     9.170V  \     4.998V
    V(X$TRANSMIT_DtoA1.DGND_OL) =    3.985mV  \    2.172mV
    V(X$C_CLK_AtoD1.NORM)     =    -1.250V  \   -12.22mV

  These supply currents failed to converge:

    I(E_E1)                   =  -735.69uA  \   228.52uA
    I(X_U1.E_EMIR)            =     9.54mA  \   -18.83mA
    I(X_U1.E_U6_E1CMP)        =    1.649mA  \  -349.17uA
    I(X_U1.E_U6_E1)           =   -1.649mA  \   348.53uA
    I(X_U1.E_U7_E1CMP)        =   -1.648mA  \    1.659mA
    I(X_U1.E_U7_E1)           =   980.14pA  \   -5.582nA
    I(X_U3.E_EMIR)            =   192.34uA  \   -36.25uA
    I(X_U3.E_U6_E1CMP)        =    1.649mA  \   145.26uA
    I(X_U3.E_U6_E1)           =   723.82pA  \   -5.519nA
    I(X_U3.E_U7_E1CMP)        =   -1.648mA  \    1.163mA
    I(X_U3.E_U7_E1)           =    1.000nA  \   -5.572nA
    I(X_U5.E_EMIR)            =    4.279mA  \  -121.85mA
    I(X_U5.E_EVAL)            =         0A  \   -4.189uA
    I(X_U5.E_U6_E1CMP)        =    1.649mA  \    1.316mA
    I(X_U5.E_U6_E1)           =   927.98pA  \   -5.576nA
    I(X_U5.E_U7_E1CMP)        =   -1.648mA  \   -6.294uA
    I(X_U5.E_U7_E1)           =    1.647mA  \    5.627uA
    I(X_out_signal_U3.E_EMIR) =   364.94pA  \    24.25nA
    I(X_out_signal_U3.E_EVAL) =         0A  \   -3.648nA
    I(X_out_signal_U3.E_U6_E1CMP) =    1.649mA  \   -1.206mA
    I(X_out_signal_U3.E_U6_E1) =   -1.649mA  \    1.205mA
    I(X_out_signal_U3.E_U7_E1CMP) =   -1.648mA  \    2.515mA
    I(X_out_signal_U3.E_U7_E1) =   960.62pA  \   -5.592nA
    I(X_U6.x1.Ebg)            =   -1.286mA  \  -757.10uA
    I(X_U6.x1.Eopamp)         =    13.03nA  \     2.566A
    I(X_U6.x1.Efb)            =   -1.169mA  \   -4.971mA
    I(X_U7B.xinstlm358.EU1)   =    17.37pA  \   -6.560nA
    I(X_U7B.xinstlm358.E2)    =   -88.24nA  \   -99.35nA
    I(X_U7B.xinstlm358.EVM)   =   -1.477nA  \    4.612nA
    I(X_U7B.xinstlm358.EVP)   =    1.498nA  \   -157.97A
    I(X_U8A.x_lm393.e1)       =   -41.09pA  \    5.671nA
    I(X_U8B.x_lm393.e1)       =   -44.60pA  \    6.500nA
    I(X_U7A.xinstlm358.EU1)   =    20.37pA  \   -3.260nA
    I(X_U7A.xinstlm358.E2)    =   144.06nA  \  -231.44nA
    I(X_U7A.xinstlm358.EVM)   =   -2.901nA  \    4.606nA
    I(X_U7A.xinstlm358.EVP)   =    2.942nA  \   -162.02A
    I(X$C_CLK_AtoD1.XNORM.EN) =    12.50uA  \   122.26nA
    I(V_V1)                   =   988.97uA  \    4.921mA
    I(X_U1.V_U6_V2)           =   -1.117nA  \    5.541nA
    I(X_U1.V_U7_V2)           =    1.648mA  \   -1.659mA
    I(X_U3.V_U6_V2)           =   -1.649mA  \  -145.27uA
    I(X_U3.V_U7_V2)           =    1.648mA  \   -1.164mA
    I(X_U5.V_U6_V2)           =   -1.649mA  \   -1.316mA
    I(X_U5.V_U7_V2)           =    2.270nA  \    5.456nA
    I(X_out_signal_U3.V_U6_V2) =   -0.998nA  \    5.573nA
    I(X_out_signal_U3.V_U7_V2) =    1.648mA  \   -2.515mA
    I(X_U6.x1.Vbg)            =  -224.28uA  \    -3.700A
    I(X_U6.x1.Vl1)            =     9.99nA  \    7.858nA
    I(X_U6.x1.Vl2)            =   -3.032nA  \    -2.566A
    I(X_U7B.xinstlm358.VFI7)  =   -70.59nA  \   -157.97A
    I(X_U7B.xinstlm358.VFI6)  =   -24.13nA  \   -157.97A
    I(X_U7B.xinstlm358.VREF)  =   -1.011uA  \     2.240A
    I(X_U8A.x_lm393.vi1)      =    1.934nA  \   -6.357nA
    I(X_U8A.x_lm393.vi2)      =    49.87nA  \    46.62nA
    I(X_U8A.x_lm393.v1)       =    41.09pA  \   -5.671nA
    I(X_U8B.x_lm393.vi1)      =   492.13pA  \   -6.478nA
    I(X_U8B.x_lm393.vi2)      =    49.87nA  \    45.96nA
    I(X_U8B.x_lm393.v1)       =    44.60pA  \   -6.500nA
    I(X_U7A.xinstlm358.VFI7)  =   165.00nA  \   -162.02A
    I(X_U7A.xinstlm358.VFI6)  =    56.42nA  \   -162.02A
    I(X_U7A.xinstlm358.VREF)  =   -1.011uA  \     2.240A
    I(X$CD4000_PWR.VVDD)      =   -5.055uA  \  -401.10uA
    I(X$CD4000_PWR.VVSS)      =   -5.055uA  \  -848.03uA
    I(X$DIGIFPWR.VDPWR)       =    -9.63mA  \    18.78mA
    I(X$DIGIFPWR.VDGND)       =    -9.54mA  \    18.83mA

  These devices failed to converge:
    X_U1.D_U6_D2CLMP X_U1.D_U6_D1CLMP X_U1.D_U7_D2CLMP X_U1.D_U7_D1CLMP 
    X_U3.D_U6_D2CLMP X_U3.D_U6_D1CLMP X_U3.D_U7_D2CLMP X_U3.D_U7_D1CLMP 
    X_U5.D_U6_D2CLMP X_U5.D_U6_D1CLMP X_U5.D_U7_D2CLMP 
    X_out_signal_U3.D_U6_D2CLMP X_out_signal_U3.D_U6_D1CLMP 
    X_out_signal_U3.D_U7_D2CLMP X_out_signal_U3.D_U7_D1CLMP X_U6.x1.D2 
    X_U6.x1.Dz1 X_U7B.xinstlm358.D1 X_U7B.xinstlm358.D2 X_U7B.xinstlm358.D8 
    X_U7B.xinstlm358.D4 X_U7B.xinstlm358.D5 X_U7B.xinstlm358.D9 
    X_U7A.xinstlm358.D1 X_U7A.xinstlm358.D2 X_U7A.xinstlm358.D8 
    X_U7A.xinstlm358.D3 X_U7A.xinstlm358.D5 X_U7A.xinstlm358.D9 
    X$N29999_AtoD1.X2.G_Clamp X_U1.J_J1 X_U3.J_J1 X_U5.J_J1 
    X_out_signal_U3.J_J1 X_U1.M_U2_U2_M7 X_U1.M_U2_U6_M3 X_U3.M_M1 
    X_U3.M_U2_U4_M2 X_U3.M_U2_U4_M3 X_U3.M_U2_U4_M4 X_U3.M_U2_U5_M3 
    X_U3.M_U2_U5_M4 X_U3.M_U2_U7_M2 X_U3.M_U2_U7_M3 X_U5.M_M1 X_U5.M_U2_U1_M4 
    X_U5.M_U2_U1_M6 X_U5.M_U2_U1_M1 X_U5.M_U2_U1_M2 X_U5.M_U2_U1_M5 
    X_U5.M_U2_U2_M8 X_U5.M_U2_U5_M2 X_U5.M_U2_U5_M3 X_U5.M_U2_U5_M4 
    X_out_signal_U3.M_M1 X_out_signal_U3.M_U2_U3_M2 X_U6.x1.Qcl 
    X_U7B.xinstlm358.QON X_U7B.xinstlm358.QOP X_U7B.xinstlm358.QIN 
    X_U8A.x_lm393.q1 X_U8B.x_lm393.q1 X_U7A.xinstlm358.QON X_U7A.xinstlm358.QOP 
    X_U7A.xinstlm358.QIP X_U7A.xinstlm358.QIN 

**** Interrupt ****
