
**** 12/04/22 19:42:30 ******* PSpice 17.4.0 (Nov 2018) ******* ID# 0 ********

 ** Profile: "root-root_tran9"  [ D:\cad\cadence\EED3009-PSpiceFiles\root\root_tran9.sim ] 


 ****     CIRCUIT DESCRIPTION


******************************************************************************




** Creating circuit file "root_tran9.cir" 
** WARNING: THIS AUTOMATICALLY GENERATED FILE MAY BE OVERWRITTEN BY SUBSEQUENT SIMULATIONS

*Libraries: 
* Profile Libraries :
* Local Libraries :
.INC "C:/Users/Abdurrahman/Desktop/cd4007/cd4007.lib" 
* From [PSPICE NETLIST] section of D:\cad\cadence\cdssetup\OrCAD_PSpice\17.4.0\PSpice.ini file:

**** INCLUDING cd4007.lib ****
.model nnMOS NMOS (LEVEL=2 VTo=1.4 Kp=.6m LAMBDA=0.005)
.model ppMOS PMOS (LEVEL=2 VTo=-1.0 KP=.6m LAMBDA=0.01)

**** RESUMING root_tran9.cir ****
.lib "nom.lib" 

*Analysis directives: 
.TRAN  0 20ms 0 
.OPTIONS ADVCONV
.OPTIONS ABSTOL= 1.0n
.OPTIONS DIGINITSTATE= 0
.OPTIONS GMIN= 1.0E-9
.OPTIONS VNTOL= 1.0m
.PROBE64 V(alias(*)) I(alias(*)) W(alias(*)) D(alias(*)) NOISE(alias(*)) 
.INC "..\root.net" 



**** INCLUDING root.net ****
* source EED3009
C_C_eq         N293890 VO-  1.82nF  TC=0,0 
M_M4         VO+ SOUND VDD VDD ppMOS           
M_M3         VO+ SOUND 0 0 nnMOS           
R_R21         N29217 VDD  1k TC=0,0 
R_R12         N29991 N29853  3.6k TC=0,0 
C_C21         0 N29421  330pF IC=-1.65V TC=0,0 
X_U1         0 N29991 N29999 VDD N30031 N29991 N29853 VDD 555C
M_M6         VO- /SOUND VDD VDD ppMOS           
X_U2A         N29999 TRANSMIT $G_DPWR $G_DGND 74HC14 PARAMS:
+ IO_LEVEL=0 MNTYMXDLY=0
M_M1         /SOUND SOUND 0 0 nnMOS           
X_U3         0 N29421 SOUND TRANSMIT N29551 N29421 N29217 VDD 555C
M_M2         /SOUND SOUND VDD VDD ppMOS           
C_C12         0 N30031  10n  TC=0,0 
C_C22         0 N29551  10n  TC=0,0 
M_M5         VO- /SOUND 0 0 nnMOS           
R_R_esr         VO+ N293890  10 TC=0,0 
C_C11         0 N29991  100nF IC=-1.65V TC=0,0 
X_CD4026_1_U3         CD4026_1_N004852 C_CLK N32613 M_UN0001 $G_DPWR $G_DGND
+  DFF
X_CD4026_1_U2         N32655 N32667 CD4026_1_N004852  $G_DPWR $G_DGND AND2
X_CD4026_1_U1A         C_CLK N32745 $D_HI N32655 N32659 N32663 N32667
+  $G_CD4000_VDD $G_CD4000_VSS CD4518B PARAMS:
+ IO_LEVEL=0 MNTYMXDLY=0
X_CD4026_2_U3         CD4026_2_N004852 N32613 N84729 M_UN0002 $G_DPWR $G_DGND
+  DFF
X_CD4026_2_U2         N32671 N32683 CD4026_2_N004852  $G_DPWR $G_DGND AND2
X_CD4026_2_U1A         N32613 N32745 $D_HI N32671 N32675 N32679 N32683
+  $G_CD4000_VDD $G_CD4000_VSS CD4518B PARAMS:
+ IO_LEVEL=0 MNTYMXDLY=0
R_R52         N74666 N74582  3.3k TC=0,0 
C_C51         0 N74666  1nF IC=-1.65V TC=0,0 
C_C52         0 N74696  10n  TC=0,0 
X_U7         ECHO_D TRANSMIT N32745 $G_DPWR $G_DGND OR2
R_R51         VDD N74582  3890 TC=0,0 
X_U5         0 N74666 C_CLK VDD N74696 N74666 N74582 VDD 555C
C_C62         0 VDD  0.1uF  TC=0,0 
C_C61         0 N86762  0.33pF  TC=0,0 
X_U6         N86762 VDD 0 LM7805C
V_V1         N86762 0 9V
R_R73         N97606 N97476  1k TC=0,0 
X_U7B         N98046 VLP VLP VDD 0 awblm358 PARAMS: AVOL=1E+5 VOS=2E-3 GBW=1E+6
+  IBOS=5E-9 IB=45E-9 CMRR=3.16228E+3 PSRR=1E+5 SR=0.5E+6 ISOURCE=40E-3 VPDIF=1
R_R71         N97606 VDD  10k TC=0,0 
C_C71         ECHO_A N97606  1uF IC=-2.50V TC=0,0 
R_R83         VPC VDD  1k TC=0,0 
R_R105         0 N98078  30k TC=0,0 
X_U8A         N97556 REF_2V5 VDD 0 VPC LM393
R_R102         N97588 ECHO_D  40k TC=0,0 
R_R81         VPA N97556  10k TC=0,0 
R_R61         REF_2V5 VDD  10k TC=0,0 
R_R91         VPC N98046  33k TC=0,0 
R_R103         ECHO_D VDD  1k TC=0,0 
R_R104         N98078 VDD  20k TC=0,0 
C_C91         0 N98046  1n  TC=0,0 
R_R72         0 N97606  10k TC=0,0 
R_R101         VLP N97588  10k TC=0,0 
X_U8B         N97588 N98078 VDD 0 ECHO_D LM393
R_R82         N97556 VPC  100k TC=0,0 
R_R9         N97476 VPA  22k TC=0,0 
X_U7A         REF_2V5 N97476 VPA VDD 0 awblm358 PARAMS: AVOL=1E+5 VOS=2E-3
+  GBW=1E+6 IBOS=5E-9 IB=45E-9 CMRR=3.16228E+3 PSRR=1E+5 SR=0.5E+6 ISOURCE=40E-3
+  VPDIF=1
C_C64         0 REF_2V5  100uF  TC=0,0 
R_R62         0 REF_2V5  10k TC=0,0 
C_C63         REF_2V5 VDD  100uF  TC=0,0 
X_D2         N109008 0 LED PARAMS: IS=1.7603e-27 RS=2  BV=5 IBV=10e-6         
R_R18         N109008 0  10k TC=0,0 
R_R11         N29853 VDD  91k TC=0,0 
R_R22         N29217 N29421  54.66k TC=0,0 
R_R3         N130528 N130552  100k TC=0,0 
C_C1         N1304641 N130528  300p  TC=0,0 
V_V3         N130552 0 2.5V
C_out_signal_C22         0 out_signal_N123881  10n  TC=0,0 
R_out_signal_R22         out_signal_N123613 out_signal_N123785  54.66k TC=0,0 
X_out_signal_U3         0 out_signal_N123785 N1304641 N130514
+  out_signal_N123881 out_signal_N123785 out_signal_N123613 VDD 555C
R_out_signal_R21         out_signal_N123613 VDD  1k TC=0,0 
C_out_signal_C21         0 out_signal_N123785  330pF IC=-1.65V TC=0,0 
R_R1         0 ECHO_A  100k TC=0,0 
E_E1         ECHO_A 0 N130528 N130552 0.1
U_DSTM1         STIM(1,1) $G_DPWR $G_DGND N131716 IO_STM IO_LEVEL=0 
+ 0 0
+ +25us 1
+REPEAT FOREVER
+ +25us 0
+  +25us 1
+ ENDREPEAT
X_delaydd_U6         delaydd_N00908 N131716 delaydd_N00912 M_UN0003 VDD 0 DFF
X_delaydd_U5         delaydd_N00904 N131716 delaydd_N00908 M_UN0004 VDD 0 DFF
X_delaydd_U10         delaydd_N00924 N131716 N130514 0 VDD 0 DFF
X_delaydd_U9         delaydd_N00920 N131716 delaydd_N00924 M_UN0005 VDD 0 DFF
X_delaydd_U4         delaydd_N00900 N131716 delaydd_N00904 M_UN0006 VDD 0 DFF
X_delaydd_U3         delaydd_N00896 N131716 delaydd_N00900 M_UN0007 VDD 0 DFF
X_delaydd_U1         TRANSMIT N131716 delaydd_N00892 M_UN0008 VDD 0 DFF
X_delaydd_U8         delaydd_N00916 N131716 delaydd_N00920 M_UN0009 VDD 0 DFF
X_delaydd_U2         delaydd_N00892 N131716 delaydd_N00896 M_UN0010 VDD 0 DFF
X_delaydd_U7         delaydd_N00912 N131716 delaydd_N00916 M_UN0011 VDD 0 DFF

**** RESUMING root_tran9.cir ****
.END


**** Generated AtoD and DtoA Interfaces ****

*
* Analog/Digital interface for node 0
*
* Moving X_delaydd_U10.U1:QBAR1 from analog node 0 to new digital node 0$DtoA
X$0_DtoA1
+ 0$DtoA
+ 0
+ VDD
+ 0
+ DtoAdefault
+       PARAMS: DRVH=  50     DRVL=  50     CAPACITANCE=   0     
*
* Analog/Digital interface for node ECHO_D
*
* Moving X_U7.U1:IN1 from analog node ECHO_D to new digital node ECHO_D$AtoD
X$ECHO_D_AtoD1
+ ECHO_D
+ ECHO_D$AtoD
+ $G_DPWR
+ $G_DGND
+ AtoDdefault
+       PARAMS: CAPACITANCE=   0     
*
* Analog/Digital interface for node N29999
*
* Moving X_U2A.U1:IN1 from analog node N29999 to new digital node N29999$AtoD
X$N29999_AtoD1
+ N29999
+ N29999$AtoD
+ $G_DPWR
+ $G_DGND
+ AtoD_HC_ST
+       PARAMS: CAPACITANCE=   3.5000E-12
*
* Analog/Digital interface for node TRANSMIT
*
* Moving X_delaydd_U1.U1:D1 from analog node TRANSMIT to new digital node TRANSMIT$AtoD
X$TRANSMIT_AtoD1
+ TRANSMIT
+ TRANSMIT$AtoD
+ VDD
+ 0
+ AtoDdefault
+       PARAMS: CAPACITANCE=   0     
* Moving X_U7.U1:IN2 from analog node TRANSMIT to new digital node TRANSMIT$AtoD2
X$TRANSMIT_AtoD2
+ TRANSMIT
+ TRANSMIT$AtoD2
+ $G_DPWR
+ $G_DGND
+ AtoDdefault
+       PARAMS: CAPACITANCE=   0     
* Moving X_U2A.U1:OUT1 from analog node TRANSMIT to new digital node TRANSMIT$DtoA
X$TRANSMIT_DtoA1
+ TRANSMIT$DtoA
+ TRANSMIT
+ $G_DPWR
+ $G_DGND
+ DtoA_HC
+       PARAMS: DRVH=  87     DRVL=  87     CAPACITANCE=   0     
*
* Analog/Digital interface for node C_CLK
*
* Moving X_CD4026_1_U1A.UCD4518BLOG:IN1 from analog node C_CLK to new digital node C_CLK$AtoD
X$C_CLK_AtoD1
+ C_CLK
+ C_CLK$AtoD
+ $G_CD4000_VDD
+ $G_CD4000_VSS
+ AtoD_4000B
+       PARAMS: CAPACITANCE=   0     
* Moving X_CD4026_1_U3.U1:CLK from analog node C_CLK to new digital node C_CLK$AtoD2
X$C_CLK_AtoD2
+ C_CLK
+ C_CLK$AtoD2
+ $G_DPWR
+ $G_DGND
+ AtoDdefault
+       PARAMS: CAPACITANCE=   0     
*
* Analog/Digital interface for node N130514
*
* Moving X_delaydd_U10.U1:Q1 from analog node N130514 to new digital node N130514$DtoA
X$N130514_DtoA1
+ N130514$DtoA
+ N130514
+ VDD
+ 0
+ DtoAdefault
+       PARAMS: DRVH=  50     DRVL=  50     CAPACITANCE=   0     
*
* Analog/Digital interface power supply subcircuits
*
X$CD4000_PWR 0 CD4000_PWR
X$DIGIFPWR 0 DIGIFPWR


**** 12/04/22 19:42:30 ******* PSpice 17.4.0 (Nov 2018) ******* ID# 0 ********

 ** Profile: "root-root_tran9"  [ D:\cad\cadence\EED3009-PSpiceFiles\root\root_tran9.sim ] 


 ****     Diode MODEL PARAMETERS


******************************************************************************




               X_U1.DIODE      X_U3.DIODE      X_U5.DIODE      X_D2.model201   
          IS   10.000000E-15   10.000000E-15   10.000000E-15    1.760300E-27 
           N                                                    2            
          BV                                                    5            
         IBV                                                   10.000000E-06 
          RS     .01             .01             .01            2            


               X_out_signal_U3.DIODE           X_U6.x1.Dlim    X_U6.x1.Dz      
          IS   10.000000E-15                   10.000000E-15   50.000000E-15 
          BV                    7.11         
         IBV                   50.000000E-09 
          RS     .01                                            3            
          VJ     .7                          


               X_U8A.x_lm393.dx 
          IS  800.000000E-18 
          RS    1            


               X_U8B.x_lm393.dx                D74CLMP         
          IS  800.000000E-18                    1.000000E-15 
          RS    1                               2            
         CJO    2.000000E-12 


**** 12/04/22 19:42:30 ******* PSpice 17.4.0 (Nov 2018) ******* ID# 0 ********

 ** Profile: "root-root_tran9"  [ D:\cad\cadence\EED3009-PSpiceFiles\root\root_tran9.sim ] 


 ****     BJT MODEL PARAMETERS


******************************************************************************




               X_U6.x1.Npn1    X_U8A.x_lm393.qin 
               NPN             PNP             
       LEVEL    1               1            
          IS   10.000000E-15  800.000000E-18 
          BF   50               2.000000E+03 
          NF    1               1            
          BR    1               1            
          NR    1               1            
         ISS    0               0            
          RE    0               0            
          RC    0               0            
         CJE    0               0            
         VJE     .75             .75         
         CJC    0               0            
         VJC     .75             .75         
         MJC     .33             .33         
        XCJC    1               1            
         CJS    0               0            
         VJS     .75             .75         
          KF    0               0            
          AF    1               1            
          CN    2.42            2.2          
           D     .87             .52         


               X_U8A.x_lm393.qmi 
               NPN             
       LEVEL    1            
          IS  800.000000E-18 
          BF    1.002000E+03 
          NF    1            
          BR    1            
          NR    1            
         ISS    0            
          RE    0            
          RC    0            
         CJE    0            
         VJE     .75         
         CJC    0            
         VJC     .75         
         MJC     .33         
        XCJC    1            
         CJS    0            
         VJS     .75         
          KF    0            
          AF    1            
          CN    2.42         
           D     .87         


               X_U8A.x_lm393.qmo 
               NPN             
       LEVEL    1            
          IS  800.000000E-18 
          BF    1.000000E+03 
          NF    1            
          BR    1            
          NR    1            
         ISS    0            
          RE    0            
          RC    0            
         CJE    0            
         VJE     .75         
         CJC    1.000000E-15 
         VJC     .75         
         MJC     .33         
        XCJC    1            
         CJS    0            
         VJS     .75         
          TR  475.400000E-09 
          KF    0            
          AF    1            
          CN    2.42         
           D     .87         


               X_U8A.x_lm393.qoc 
               NPN             
       LEVEL    1            
          IS  800.000000E-18 
          BF   20.690000E+03 
          NF    1            
          BR    1            
          NR    1            
         ISS    0            
          RE    0            
          RC    0            
         CJE    0            
         VJE     .75         
         CJC    1.000000E-15 
         VJC     .75         
         MJC     .33         
        XCJC    1            
         CJS    0            
         VJS     .75         
          TF    3.540000E-09 
          TR  472.800000E-09 
          KF    0            
          AF    1            
          CN    2.42         
           D     .87         


               X_U8B.x_lm393.qin 
               PNP             
       LEVEL    1            
          IS  800.000000E-18 
          BF    2.000000E+03 
          NF    1            
          BR    1            
          NR    1            
         ISS    0            
          RE    0            
          RC    0            
         CJE    0            
         VJE     .75         
         CJC    0            
         VJC     .75         
         MJC     .33         
        XCJC    1            
         CJS    0            
         VJS     .75         
          KF    0            
          AF    1            
          CN    2.2          
           D     .52         


               X_U8B.x_lm393.qmi 
               NPN             
       LEVEL    1            
          IS  800.000000E-18 
          BF    1.002000E+03 
          NF    1            
          BR    1            
          NR    1            
         ISS    0            
          RE    0            
          RC    0            
         CJE    0            
         VJE     .75         
         CJC    0            
         VJC     .75         
         MJC     .33         
        XCJC    1            
         CJS    0            
         VJS     .75         
          KF    0            
          AF    1            
          CN    2.42         
           D     .87         


               X_U8B.x_lm393.qmo 
               NPN             
       LEVEL    1            
          IS  800.000000E-18 
          BF    1.000000E+03 
          NF    1            
          BR    1            
          NR    1            
         ISS    0            
          RE    0            
          RC    0            
         CJE    0            
         VJE     .75         
         CJC    1.000000E-15 
         VJC     .75         
         MJC     .33         
        XCJC    1            
         CJS    0            
         VJS     .75         
          TR  475.400000E-09 
          KF    0            
          AF    1            
          CN    2.42         
           D     .87         


               X_U8B.x_lm393.qoc 
               NPN             
       LEVEL    1            
          IS  800.000000E-18 
          BF   20.690000E+03 
          NF    1            
          BR    1            
          NR    1            
         ISS    0            
          RE    0            
          RC    0            
         CJE    0            
         VJE     .75         
         CJC    1.000000E-15 
         VJC     .75         
         MJC     .33         
        XCJC    1            
         CJS    0            
         VJS     .75         
          TF    3.540000E-09 
          TR  472.800000E-09 
          KF    0            
          AF    1            
          CN    2.42         
           D     .87         


**** 12/04/22 19:42:30 ******* PSpice 17.4.0 (Nov 2018) ******* ID# 0 ********

 ** Profile: "root-root_tran9"  [ D:\cad\cadence\EED3009-PSpiceFiles\root\root_tran9.sim ] 


 ****     Junction FET MODEL PARAMETERS


******************************************************************************




               X_U1.JNEMOD     X_U3.JNEMOD     X_U5.JNEMOD     
               NJF             NJF             NJF             
         VTO   -2.5            -2.5            -2.5          
        BETA    5.120000E-06    5.120000E-06    5.120000E-06 


               X_out_signal_U3.JNEMOD 
               NJF             
         VTO   -2.5          
        BETA    5.120000E-06 


**** 12/04/22 19:42:30 ******* PSpice 17.4.0 (Nov 2018) ******* ID# 0 ********

 ** Profile: "root-root_tran9"  [ D:\cad\cadence\EED3009-PSpiceFiles\root\root_tran9.sim ] 


 ****     MOSFET MODEL PARAMETERS


******************************************************************************




               nnMOS           ppMOS           X_U1.PCHAN555   X_U1.NCHAN555   
               NMOS            PMOS            PMOS            NMOS            
       LEVEL    2               2               1               1            
           L  100.000000E-06  100.000000E-06  100.000000E-06  100.000000E-06 
           W  100.000000E-06  100.000000E-06  100.000000E-06  100.000000E-06 
         VTO    1.4            -1               -.2              .2          
          KP  600.000000E-06  600.000000E-06   20.000000E-06   20.000000E-06 
       GAMMA    0               0               0               0            
         PHI     .6              .6              .6              .6          
      LAMBDA    5.000000E-03     .01            0               0            
          IS   10.000000E-15   10.000000E-15   10.000000E-15   10.000000E-15 
          JS    0               0               0               0            
          PB     .8              .8              .8              .8          
        PBSW     .8              .8              .8              .8          
          CJ    0               0               0               0            
        CJSW    0               0               0               0            
        CGSO    0               0               1.000000E-12    1.000000E-12 
        CGDO    0               0               1.000000E-12    1.000000E-12 
        CGBO    0               0               1.000000E-12    1.000000E-12 
         TOX  100.000000E-09  100.000000E-09    0               0            
          XJ    0               0               0               0            
       UCRIT   10.000000E+03   10.000000E+03   10.000000E+03   10.000000E+03 
      DIOMOD    1               1               1               1            
         VFB    0               0               0               0            
        LETA    0               0               0               0            
        WETA    0               0               0               0            
          U0    0               0               0               0            
        TEMP    0               0               0               0            
         VDD    5               5               5               5            
       XPART    0               0               0               0            


               X_U1.PCHAN555_OUT               X_U3.PCHAN555   X_U3.NCHAN555   
               PMOS                            PMOS            NMOS            
       LEVEL    1                               1               1            
           L  100.000000E-06                  100.000000E-06  100.000000E-06 
           W  100.000000E-06                  100.000000E-06  100.000000E-06 
         VTO    -.2                             -.2              .2          
          KP   20.000000E-06                   20.000000E-06   20.000000E-06 
       GAMMA    0                               0               0            
         PHI     .6                              .6              .6          
      LAMBDA    0                               0               0            
          IS   10.000000E-15                   10.000000E-15   10.000000E-15 
          JS    0                               0               0            
          PB     .8                              .8              .8          
        PBSW     .8                              .8              .8          
         CBD  200.000000E-12                                                 
          CJ    0                               0               0            
        CJSW    0                               0               0            
        CGSO    1.000000E-12                    1.000000E-12    1.000000E-12 
        CGDO    1.000000E-12                    1.000000E-12    1.000000E-12 
        CGBO    1.000000E-12                    1.000000E-12    1.000000E-12 
         TOX    0                               0               0            
          XJ    0                               0               0            
       UCRIT   10.000000E+03                   10.000000E+03   10.000000E+03 
      DIOMOD    1                               1               1            
         VFB    0                               0               0            
        LETA    0                               0               0            
        WETA    0                               0               0            
          U0    0                               0               0            
        TEMP    0                               0               0            
         VDD    5                               5               5            
       XPART    0                               0               0            


               X_U3.PCHAN555_OUT               X_U5.PCHAN555   X_U5.NCHAN555   
               PMOS                            PMOS            NMOS            
       LEVEL    1                               1               1            
           L  100.000000E-06                  100.000000E-06  100.000000E-06 
           W  100.000000E-06                  100.000000E-06  100.000000E-06 
         VTO    -.2                             -.2              .2          
          KP   20.000000E-06                   20.000000E-06   20.000000E-06 
       GAMMA    0                               0               0            
         PHI     .6                              .6              .6          
      LAMBDA    0                               0               0            
          IS   10.000000E-15                   10.000000E-15   10.000000E-15 
          JS    0                               0               0            
          PB     .8                              .8              .8          
        PBSW     .8                              .8              .8          
         CBD  200.000000E-12                                                 
          CJ    0                               0               0            
        CJSW    0                               0               0            
        CGSO    1.000000E-12                    1.000000E-12    1.000000E-12 
        CGDO    1.000000E-12                    1.000000E-12    1.000000E-12 
        CGBO    1.000000E-12                    1.000000E-12    1.000000E-12 
         TOX    0                               0               0            
          XJ    0                               0               0            
       UCRIT   10.000000E+03                   10.000000E+03   10.000000E+03 
      DIOMOD    1                               1               1            
         VFB    0                               0               0            
        LETA    0                               0               0            
        WETA    0                               0               0            
          U0    0                               0               0            
        TEMP    0                               0               0            
         VDD    5                               5               5            
       XPART    0                               0               0            


               X_U5.PCHAN555_OUT 
               PMOS            
       LEVEL    1            
           L  100.000000E-06 
           W  100.000000E-06 
         VTO    -.2          
          KP   20.000000E-06 
       GAMMA    0            
         PHI     .6          
      LAMBDA    0            
          IS   10.000000E-15 
          JS    0            
          PB     .8          
        PBSW     .8          
         CBD  200.000000E-12 
          CJ    0            
        CJSW    0            
        CGSO    1.000000E-12 
        CGDO    1.000000E-12 
        CGBO    1.000000E-12 
         TOX    0            
          XJ    0            
       UCRIT   10.000000E+03 
      DIOMOD    1            
         VFB    0            
        LETA    0            
        WETA    0            
          U0    0            
        TEMP    0            
         VDD    5            
       XPART    0            


               X_out_signal_U3.PCHAN555 
               PMOS            
       LEVEL    1            
           L  100.000000E-06 
           W  100.000000E-06 
         VTO    -.2          
          KP   20.000000E-06 
       GAMMA    0            
         PHI     .6          
      LAMBDA    0            
          IS   10.000000E-15 
          JS    0            
          PB     .8          
        PBSW     .8          
          CJ    0            
        CJSW    0            
        CGSO    1.000000E-12 
        CGDO    1.000000E-12 
        CGBO    1.000000E-12 
         TOX    0            
          XJ    0            
       UCRIT   10.000000E+03 
      DIOMOD    1            
         VFB    0            
        LETA    0            
        WETA    0            
          U0    0            
        TEMP    0            
         VDD    5            
       XPART    0            


               X_out_signal_U3.NCHAN555 
               NMOS            
       LEVEL    1            
           L  100.000000E-06 
           W  100.000000E-06 
         VTO     .2          
          KP   20.000000E-06 
       GAMMA    0            
         PHI     .6          
      LAMBDA    0            
          IS   10.000000E-15 
          JS    0            
          PB     .8          
        PBSW     .8          
          CJ    0            
        CJSW    0            
        CGSO    1.000000E-12 
        CGDO    1.000000E-12 
        CGBO    1.000000E-12 
         TOX    0            
          XJ    0            
       UCRIT   10.000000E+03 
      DIOMOD    1            
         VFB    0            
        LETA    0            
        WETA    0            
          U0    0            
        TEMP    0            
         VDD    5            
       XPART    0            


               X_out_signal_U3.PCHAN555_OUT 
               PMOS            
       LEVEL    1            
           L  100.000000E-06 
           W  100.000000E-06 
         VTO    -.2          
          KP   20.000000E-06 
       GAMMA    0            
         PHI     .6          
      LAMBDA    0            
          IS   10.000000E-15 
          JS    0            
          PB     .8          
        PBSW     .8          
         CBD  200.000000E-12 
          CJ    0            
        CJSW    0            
        CGSO    1.000000E-12 
        CGDO    1.000000E-12 
        CGBO    1.000000E-12 
         TOX    0            
          XJ    0            
       UCRIT   10.000000E+03 
      DIOMOD    1            
         VFB    0            
        LETA    0            
        WETA    0            
          U0    0            
        TEMP    0            
         VDD    5            
       XPART    0            


**** 12/04/22 19:42:30 ******* PSpice 17.4.0 (Nov 2018) ******* ID# 0 ********

 ** Profile: "root-root_tran9"  [ D:\cad\cadence\EED3009-PSpiceFiles\root\root_tran9.sim ] 


 ****     Voltage Controlled Switch MODEL PARAMETERS


******************************************************************************




               X_U6.x1.Sbg1    
         RON    1            
        ROFF    1.000000E+06 
         VON    3.7          
        VOFF    3            


**** 12/04/22 19:42:30 ******* PSpice 17.4.0 (Nov 2018) ******* ID# 0 ********

 ** Profile: "root-root_tran9"  [ D:\cad\cadence\EED3009-PSpiceFiles\root\root_tran9.sim ] 


 ****     Digital Input MODEL PARAMETERS


******************************************************************************




               DIN74           DIN74HC         
      S0NAME 0               0               
       S0TSW    3.500000E-09    5.000000E-09 
       S0RLO    7.13            1            
       S0RHI  389             100.000000E+03 
      S1NAME 1               1               
       S1TSW    5.500000E-09    5.000000E-09 
       S1RLO  467             100.000000E+03 
       S1RHI  200               1            
      S2NAME X               X               
       S2TSW    3.500000E-09    5.000000E-09 
       S2RLO   42.9           110            
       S2RHI  116             100            
      S3NAME R               R               
       S3TSW    3.500000E-09    5.000000E-09 
       S3RLO   42.9           110            
       S3RHI  116             100            
      S4NAME F               F               
       S4TSW    3.500000E-09    5.000000E-09 
       S4RLO   42.9           110            
       S4RHI  116             100            
      S5NAME Z               Z               
       S5TSW    3.500000E-09    5.000000E-09 
       S5RLO  200.000000E+03  200.000000E+03 
       S5RHI  200.000000E+03  200.000000E+03 


**** 12/04/22 19:42:30 ******* PSpice 17.4.0 (Nov 2018) ******* ID# 0 ********

 ** Profile: "root-root_tran9"  [ D:\cad\cadence\EED3009-PSpiceFiles\root\root_tran9.sim ] 


 ****     Digital Output MODEL PARAMETERS


******************************************************************************




               DO74            DO74HC_ST       DO4000B         
    TIMESTEP  100.000000E-12  100.000000E-12  100.000000E-12 
      S0NAME X               0               X               
       S0VHI    2                .55             .5          
       S0VLO     .8            -1.3             -.5          
      S1NAME 0               1               0               
       S1VHI     .8             1.3             -.5          
       S1VLO   -1.5              .33           -3            
      S2NAME R                               R               
       S2VHI    1.4                              .05         
       S2VLO     .8                             -.5          
      S3NAME R                               R               
       S3VHI    2                                .5          
       S3VLO    1.3                             -.05         
      S4NAME X                               X               
       S4VHI    2                                .5          
       S4VLO     .8                             -.5          
      S5NAME 1                               1               
       S5VHI    7                               3            
       S5VLO    2                                .5          
      S6NAME F                               F               
       S6VHI    2                                .5          
       S6VLO    1.3                             -.05         
      S7NAME F                               F               
       S7VHI    1.4                              .05         
       S7VLO     .8                             -.5          


**** 12/04/22 19:42:30 ******* PSpice 17.4.0 (Nov 2018) ******* ID# 0 ********

 ** Profile: "root-root_tran9"  [ D:\cad\cadence\EED3009-PSpiceFiles\root\root_tran9.sim ] 


 ****     Digital Gate MODEL PARAMETERS


******************************************************************************




               D_HC14          D0_GATE         D_PLD_GATE      
      TPLHMN    4.800000E-09    0               0            
      TPLHTY   12.000000E-09    0               0            
      TPLHMX   31.000000E-09    0               0            
      TPHLMN    4.800000E-09    0               0            
      TPHLTY   12.000000E-09    0               0            
      TPHLMX   31.000000E-09    0               0            


**** 12/04/22 19:42:30 ******* PSpice 17.4.0 (Nov 2018) ******* ID# 0 ********

 ** Profile: "root-root_tran9"  [ D:\cad\cadence\EED3009-PSpiceFiles\root\root_tran9.sim ] 


 ****     Digital Edge Triggered FF MODEL PARAMETERS


******************************************************************************




               D0_EFF          D_PLD_EFF       
  TPCLKQLHMN    0               0            
  TPCLKQLHTY    0               0            
  TPCLKQLHMX    0               0            
  TPCLKQHLMN    0               0            
  TPCLKQHLTY    0               0            
  TPCLKQHLMX    0               0            
   TPPCQLHMN    0               0            
   TPPCQLHTY    0               0            
   TPPCQLHMX    0               0            
   TPPCQHLMN    0               0            
   TPPCQHLTY    0               0            
   TPPCQHLMX    0               0            
    TWCLKLMN    0               0            
    TWCLKLTY    0               0            
    TWCLKLMX    0               0            
    TWCLKHMN    0               0            
    TWCLKHTY    0               0            
    TWCLKHMX    0               0            
     TWPCLMN    0               0            
     TWPCLTY    0               0            
     TWPCLMX    0               0            
   TSUDCLKMN    0               0            
   TSUDCLKTY    0               0            
   TSUDCLKMX    0               0            
 TSUPCCLKHMN    0               0            
 TSUPCCLKHTY    0               0            
 TSUPCCLKHMX    0               0            
    THDCLKMN    0               0            
    THDCLKTY    0               0            
    THDCLKMX    0               0            
  TSUCECLKMN    0               0            
  TSUCECLKTY    0               0            
  TSUCECLKMX    0               0            
   THCECLKMN    0               0            
   THCECLKTY    0               0            
   THCECLKMX    0               0            


**** 12/04/22 19:42:30 ******* PSpice 17.4.0 (Nov 2018) ******* ID# 0 ********

 ** Profile: "root-root_tran9"  [ D:\cad\cadence\EED3009-PSpiceFiles\root\root_tran9.sim ] 


 ****     Digital IO  MODEL PARAMETERS


******************************************************************************




               IO_STM          IO_HC_ST        IO_4000B        IO_PLD          
        INLD                    3.500000E-12                                 
        DRVL    0              87               1.443000E+03                 
        DRVH    0              87               1.443000E+03                 
       AtoD1                 AtoD_HC_ST      AtoD_4000B                      
       AtoD2                 AtoD_HC_ST      AtoD_4000B_NX                   
       AtoD3                 AtoD_HC_ST      AtoD_4000B                      
       AtoD4                 AtoD_HC_ST      AtoD_4000B_NX                   
       DtoA1 DtoA_STM        DtoA_HC         DtoA_4000B                      
       DtoA2 DtoA_STM        DtoA_HC         DtoA_4000B                      
       DtoA3 DtoA_STM        DtoA_HC_E       DtoA_4000B                      
       DtoA4 DtoA_STM        DtoA_HC_E       DtoA_4000B                      
    DIGPOWER                                 CD4000_PWR                      
      TSWHL1                    2.742000E-09    7.720000E-09                 
      TSWHL2                    2.742000E-09    7.860000E-09                 
      TSWHL3                    2.751000E-09    9.710000E-09                 
      TSWHL4                    2.751000E-09    9.630000E-09                 
      TSWLH1                    2.758000E-09    7.560000E-09                 
      TSWLH2                    2.758000E-09    7.400000E-09                 
      TSWLH3                    2.763000E-09    9.410000E-09                 
      TSWLH4                    2.763000E-09    9.240000E-09                 
       TPWRT  100.000000E+03    2.000000E-09  100.000000E+03  100.000000E+03 


               IO_DFT          IO_HC           IO_HC_DTOA      
        INLD                    3.500000E-12                 
        DRVL                   87                            
        DRVH                   87                            
       AtoD1 AtoD_STD        AtoD_HC                         
       AtoD2 AtoD_STD_NX     AtoD_HC_NX                      
       AtoD3 AtoD_STD        AtoD_HC                         
       AtoD4 AtoD_STD_NX     AtoD_HC_NX                      
       DtoA1 DtoA_STD        DtoA_HC                         
       DtoA2 DtoA_STD        DtoA_HC                         
       DtoA3 DtoA_STD        DtoA_HC_E                       
       DtoA4 DtoA_STD        DtoA_HC_E                       
      TSWHL1                    2.742000E-09                 
      TSWHL2                    2.742000E-09                 
      TSWHL3                    2.751000E-09                 
      TSWHL4                    2.751000E-09                 
      TSWLH1                    2.758000E-09                 
      TSWLH2                    2.758000E-09                 
      TSWLH3                    2.763000E-09                 
      TSWLH4                    2.763000E-09                 
       TPWRT  100.000000E+03    2.000000E-09  100.000000E+03 


Starting pseudo-transient algorithm.

ERROR -- Convergence problem in transient bias point calculation


  Last node voltages tried were:

 NODE   VOLTAGE     NODE   VOLTAGE     NODE   VOLTAGE     NODE   VOLTAGE


(  VDD)    7.3579  (  VLP)    6.4022  (  VO+)    7.3512  (  VO-)     .0072      

(  VPA)    6.3765  (  VPC)    7.3447  (C_CLK) 6.754E-06  (SOUND) 4.581E-06      

(/SOUND)    7.3579 (ECHO_A)-37.72E-06 (ECHO_D)    7.3392 (N29217)     .1022     

(N29421)     .6003 (N29551)     .8401 (N29853)     .0043 (N29991)     .8099     

(N29999) 3.880E-06 (N30031)     .8401 (N74582)     .0282 (N74666)     .4669     

(N74696)     .8401 (N86762)    9.0000 (N97476)    2.6899 (N97556)    6.4645     

(N97588)    6.5895 (N97606)    2.5222 (N98046)    7.2000 (N98078)    4.4153     

(X_U1.1)    7.3579 (X_U1.2)     .4201 (X_U1.3)-3898.7000 (X_U1.4)    6.5579     

(X_U1.5)    -.6307 (X_U1.6) -301.8700 (X_U1.7)    6.5579 (X_U1.8)    -.5646     

(X_U1.9)    7.3579 (X_U3.1)    7.3579 (X_U3.2)     .4201 (X_U3.3)-1802.6000     

(X_U3.4)    6.5579 (X_U3.5)    -.6108 (X_U3.6)-2397.9000 (X_U3.7)    6.5579     

(X_U3.8)    -.6182 (X_U3.9)    7.3579 (X_U5.1)    7.3579 (X_U5.2)     .4201     

(X_U5.3) -468.7400 (X_U5.4)    6.5579 (X_U5.5)    -.5760 (X_U5.6)-3731.8000     

(X_U5.7)    6.5579 (X_U5.8)    -.6296 (X_U5.9)    7.3579 ($G_DGND)    0.0000    

($G_DPWR)    5.0000                   (N109008)    0.0000                       

(N130514)     .1324                   (N130528)    2.4996                       

(N130552)    2.5000                   (N293890)    7.3510                       

(REF_2V5)    3.6790                   (X_U1.10) 343.1E-09                       

(X_U1.11)    7.3579                   (X_U1.12) 102.7E-09                       

(X_U1.13)    7.3579                   (X_U1.14)    7.3579                       

(X_U1.15)    7.3579                   (X_U1.16)    7.3579                       

(X_U1.17) 103.2E-09                   (X_U1.18) 417.3E-09                       

(X_U1.19) 208.8E-09                   (X_U1.20)    7.3125                       

(X_U1.21)     .2354                   (X_U1.22)    7.1225                       

(X_U1.23)     .1693                   (X_U1.24)    7.3579                       

(X_U1.25) 102.8E-09                   (X_U3.10) 340.0E-09                       

(X_U3.11)    7.3579                   (X_U3.12) 103.0E-09                       

(X_U3.13)    7.3579                   (X_U3.14)    7.3579                       

(X_U3.15)    7.3579                   (X_U3.16)    7.3579                       

(X_U3.17) 102.8E-09                   (X_U3.18)     .0016                       

(X_U3.19) 973.3E-06                   (X_U3.20)    7.3579                       

(X_U3.21)     .1818                   (X_U3.22)    7.1567                       

(X_U3.23)     .1892                   (X_U3.24)    7.3579                       

(X_U3.25) 973.2E-06                   (X_U5.10) 342.7E-09                       

(X_U5.11)    7.3579                   (X_U5.12) 102.8E-09                       

(X_U5.13)    7.3579                   (X_U5.14)    7.3579                       

(X_U5.15)    7.3579                   (X_U5.16)    7.3579                       

(X_U5.17) 99.52E-09                   (X_U5.18) 411.3E-09                       

(X_U5.19) 205.6E-09                   (X_U5.20)    7.3579                       

(X_U5.21)     .1704                   (X_U5.22)    7.1359                       

(X_U5.23)     .2240                   (X_U5.24)    7.3370                       

(X_U5.25) 102.8E-09                   (N1304641) 3.856E-06                      

(TRANSMIT)    4.9975                  (X_U1.VDD)    7.3579                      

(X_U3.VDD)    7.3579                  (X_U5.VDD)    7.3579                      

(X_U6.x1.4)    8.8539                 (X_U6.x1.5)    8.7972                     

(X_U6.x1.6)    8.1152                 (X_U6.x1.7)    7.3945                     

(X_U6.x1.8)    3.6893                 (X_U6.x1.9)    7.3589                     

(X_U6.x1.55)    7.3945                (X_U6.x1.56)    7.3945                    

(X_U6.x1.100)    7.4000               (X_U6.x1.101)    3.7004                   

(X_U6.x1.102)    9.0000               (X_U6.x1.105) 2183.1000                   

(X_U6.x1.106)    8.8539               (X_U6.x1.107)    1.0000                   

(X_U6.x1.108)    8.0000               (X_U6.x1.200) 1665.0000                   

($G_CD4000_VDD)    5.0000             ($G_CD4000_VSS)    0.0000                 

(X_U8A.x_lm393.7)    5.0898           (X_U8A.x_lm393.8)     .6503               

(X_U8A.x_lm393.9)     .0179           (X_U8B.x_lm393.7)    5.8262               

(X_U8B.x_lm393.8)     .6503           (X_U8B.x_lm393.9)     .0179               

(X_U8A.x_lm393.10)     .0179          (X_U8A.x_lm393.11)     .0179              

(X_U8A.x_lm393.21)    7.2145          (X_U8A.x_lm393.22)    4.4290              

(X_U8B.x_lm393.10)     .0179          (X_U8B.x_lm393.11)     .0179              

(X_U8B.x_lm393.21)    7.3395          (X_U8B.x_lm393.22)    5.1653              

(X_out_signal_U3.1)    7.3579         (X_out_signal_U3.2)     .4201             

(X_out_signal_U3.3) 3179.5000         (X_out_signal_U3.4)    6.5579             

(X_out_signal_U3.5)    6.3833         (X_out_signal_U3.6)-7380.0000             

(X_out_signal_U3.7)    6.5579         (X_out_signal_U3.8)    -.6473             

(X_out_signal_U3.9)    7.3579         (out_signal_N123613)     .1021            

(out_signal_N123785)     .1021        (out_signal_N123881)     .8401            

(X$C_CLK_AtoD1.NORM)   -1.2500        (X_out_signal_U3.10) 339.2E-09            

(X_out_signal_U3.11)    7.3579        (X_out_signal_U3.12) 24.83E-09            

(X_out_signal_U3.13)    7.3579        (X_out_signal_U3.14)    7.3579            

(X_out_signal_U3.15)    3.6744        (X_out_signal_U3.16)     .2012            

(X_out_signal_U3.17) 99.20E-09        (X_out_signal_U3.18)    7.3579            

(X_out_signal_U3.19)    7.1567        (X_out_signal_U3.20)    7.3579            

(X_out_signal_U3.21)     .1528        (X_out_signal_U3.22)    3.6734            

(X_out_signal_U3.23)    7.1833        (X_out_signal_U3.24) 107.0E-09            

(X_out_signal_U3.25)    7.3579        (X_U7A.xinstlm358.1)     .0797            

(X_U7A.xinstlm358.2)    3.3017        (X_U7A.xinstlm358.4) 37.18E-06            

(X_U7A.xinstlm358.5)    3.3297        (X_U7A.xinstlm358.6)    3.6789            

(X_U7A.xinstlm358.7) 1000.0000        (X_U7A.xinstlm358.9)    5.4613            

(X_U7B.xinstlm358.1)     .0782        (X_U7B.xinstlm358.2)    7.0135            

(X_U7B.xinstlm358.4) 75.55E-06        (X_U7B.xinstlm358.5)    7.0409            

(X_U7B.xinstlm358.6)    7.1999        (X_U7B.xinstlm358.7) 1000.0000            

(X_U7B.xinstlm358.9)    5.4613        (X$N29999_AtoD1.NORM) 776.0E-09           

(X_out_signal_U3.VDD)    7.3579       (X_U7A.xinstlm358.10)    6.4267           

(X_U7A.xinstlm358.11)    5.4589       (X_U7A.xinstlm358.12)    0.0000           

(X_U7A.xinstlm358.14)    3.4578       (X_U7A.xinstlm358.15)    3.4578           

(X_U7A.xinstlm358.16)    -.9654       (X_U7A.xinstlm358.17)    3.3297           

(X_U7A.xinstlm358.18)    1.9567       (X_U7A.xinstlm358.20) 40.03E-06           

(X_U7A.xinstlm358.21)    4.8808       (X_U7A.xinstlm358.22)    5.4763           

(X_U7A.xinstlm358.24) 1000.9000       (X_U7A.xinstlm358.25)    6.4267           

(X_U7A.xinstlm358.26)    7.1544       (X_U7A.xinstlm358.27)    5.6988           

(X_U7B.xinstlm358.10)    6.4258       (X_U7B.xinstlm358.11)    5.4580           

(X_U7B.xinstlm358.12)    0.0000       (X_U7B.xinstlm358.14)    3.4578           

(X_U7B.xinstlm358.15)    3.4578       (X_U7B.xinstlm358.16)    -.9645           

(X_U7B.xinstlm358.17)    7.0409       (X_U7B.xinstlm358.18)    2.0077           

(X_U7B.xinstlm358.20) 40.03E-06       (X_U7B.xinstlm358.21)    4.9065           

(X_U7B.xinstlm358.22)    5.5020       (X_U7B.xinstlm358.24) 1000.9000           

(X_U7B.xinstlm358.25)    6.4258       (X_U7B.xinstlm358.26)    7.1536           

(X_U7B.xinstlm358.27)    5.6979       (X$TRANSMIT_DtoA1.DGND_OL)     .0022      

(X$TRANSMIT_DtoA1.DPWR_OH)    4.9975  (X$C_CLK_AtoD1.XNORM.THRESHOLD)    1.5000 



 DGTL NODE : STATE  DGTL NODE : STATE  DGTL NODE : STATE  DGTL NODE : STATE


(X_CD4026_2_U1A.D1) : 1               (M_UN0006) : 1     (  N32659) : 0         

(X_CD4026_2_U1A.D2) : 1               (M_UN0003) : 1                            

(X_CD4026_2_U1A.RESET) : X            (X_CD4026_2_U1A.CLK4) : 1                 

(X_CD4026_1_U1A.D3) : 1               (TRANSMIT$AtoD2) : X                      

( N131716) : 0     (X_CD4026_2_U1A.Q4) : 0                                      

(X_CD4026_2_U1A.CLK1) : 0             (X_CD4026_1_U1A.CLK4) : 1                 

(delaydd_N00900) : 0                  (X_CD4026_1_U1A.D4) : 1                   

(X_CD4026_1_U1A.Q1BAR) : 1            (X_CD4026_2_U1A.Q1) : 0                   

(X_CD4026_1_U1A.CLK1) : X             (X_CD4026_2_U1A.CLK) : 0                  

(  N32671) : 0     (N130514$DtoA) : 0                    (delaydd_N00916) : 0   

(X_CD4026_2_U1A.Q2) : 0               (  N32655) : 0     (  N84729) : 0         

(X_CD4026_2_U1A.Q2BAR) : 1            (X_CD4026_1_U1A.Q3) : 0                   

(M_UN0010) : 1     (  N32613) : 0     (TRANSMIT$AtoD) : X                       

(   $D_HI) : 1     (X_CD4026_1_U1A.Q4) : 0               (C_CLK$AtoD) : X       

(M_UN0007) : 1     (N29999$AtoD) : 0  (X_CD4026_2_U1A.D3) : 1                   

(M_UN0004) : 1     (X_CD4026_1_U1A.RESETBAR) : X                                

(X_CD4026_1_U1A.Q4BAR) : 1            (delaydd_N00904) : 0                      

(  N32667) : 0     (delaydd_N00920) : 0                  (M_UN0001) : 1         

(X_CD4026_2_U1A.CLK2) : 1             (delaydd_N00892) : 0                      

(X_CD4026_2_U1A.Q1BAR) : 1            (X_CD4026_1_U1A.CLK2) : 1                 

(ECHO_D$AtoD) : 0  (X_CD4026_2_U1A.EN) : 1                                      

(X_CD4026_2_U1A.Q3) : 0               (  N32683) : 0     (M_UN0008) : 1         

(delaydd_N00908) : 0                  (M_UN0011) : 1     (CD4026_1_N004852) : 0 

(TRANSMIT$DtoA) : 1                   (X_CD4026_1_U1A.Q3BAR) : 1                

(C_CLK$AtoD2) : 0  (  N32663) : 0     (delaydd_N00924) : 0                      

(M_UN0005) : 1     (X_CD4026_2_U1A.Q4BAR) : 1                                   

(X_CD4026_1_U1A.D1) : 1               (X_CD4026_2_U1A.RESETBAR) : X             

(delaydd_N00896) : 0                  (  N32679) : 0                            

(X_CD4026_1_U1A.RESET) : X            (M_UN0002) : 1     (  N32745) : X         

(X_CD4026_2_U1A.CLK3) : 1             (X_CD4026_1_U1A.D2) : 1                   

(X_CD4026_1_U1A.EN) : 1               (X_CD4026_1_U1A.CLK3) : 1                 

(  0$DtoA) : 1     (CD4026_2_N004852) : 0                (M_UN0009) : 1         

(X_CD4026_1_U1A.Q1) : 0               (X_CD4026_1_U1A.CLK) : X                  

(X_CD4026_1_U1A.Q2BAR) : 1            (  N32675) : 0     (delaydd_N00912) : 0   

(X_CD4026_1_U1A.Q2) : 0               (X_CD4026_2_U1A.D4) : 1                   

(X_CD4026_2_U1A.Q3BAR) : 1            


  These voltages failed to converge:

    V(N293890)                =    1.222mV  \     7.351V
    V(VO-)                    =    4.106nV  \    7.166mV
    V(VO+)                    =    1.222mV  \     7.351V
    V(VDD)                    =    1.222mV  \     7.358V
    V(N29217)                 =    5.219mV  \   102.22mV
    V(N29991)                 =     1.650V  \   809.92mV
    V(N29853)                 =    86.66mV  \    4.257mV
    V(N29421)                 =     1.650V  \   600.32mV
    V(/SOUND)                 =    1.222mV  \     7.358V
    V(N30031)                 =   815.09uV  \   840.11mV
    V(N29551)                 =   815.09uV  \   840.11mV
    V(N74666)                 =     1.650V  \   466.93mV
    V(N74582)                 =    89.98mV  \    28.24mV
    V(N74696)                 =   815.09uV  \   840.11mV
    V(N97606)                 =     2.500V  \     2.522V
    V(N97476)                 =     2.254V  \     2.690V
    V(VPC)                    =   -27.31mV  \     7.345V
    V(N98078)                 =    1.332mV  \     4.415V
    V(N97588)                 =    -1.367V  \     6.590V
    V(ECHO_D)                 =   -32.16mV  \     7.339V
    V(VPA)                    =    -3.166V  \     6.377V
    V(N97556)                 =    -2.881V  \     6.465V
    V(REF_2V5)                =   860.40uV  \     3.679V
    V(N98046)                 =   -27.31mV  \     7.200V
    V(VLP)                    =    -1.701V  \     6.402V
    V(out_signal_N123881)     =   815.09uV  \   840.11mV
    V(out_signal_N123613)     =    5.219mV  \   102.10mV
    V(out_signal_N123785)     =     1.650V  \   102.11mV
    V(X_U1.2)                 =   407.79uV  \   420.05mV
    V(X_U1.VDD)               =    1.222mV  \     7.358V
    V(X_U1.1)                 =    1.222mV  \     7.358V
    V(X_U1.13)                =    1.222mV  \     7.358V
    V(X_U1.3)                 =   -16.50KV  \   -3.899KV
    V(X_U1.23)                =    85.68mV  \   169.26mV
    V(X_U1.4)                 =  -798.78mV  \     6.558V
    V(X_U1.5)                 =  -714.32mV  \  -630.74mV
    V(X_U1.6)                 =    16.49KV  \   -301.87V
    V(X_U1.21)                =     1.672V  \   235.40mV
    V(X_U1.7)                 =  -798.78mV  \     6.558V
    V(X_U1.8)                 =   872.13mV  \  -564.60mV
    V(X_U1.9)                 =    1.222mV  \     7.358V
    V(X_U1.11)                =    1.222mV  \     7.358V
    V(X_U1.14)                =    1.222mV  \     7.358V
    V(X_U1.15)                =    1.222mV  \     7.358V
    V(X_U1.16)                =    1.222mV  \     7.358V
    V(X_U1.24)                =    1.222mV  \     7.358V
    V(X_U1.20)                =    -51.47V  \     7.313V
    V(X_U1.22)                =    -1.670V  \     7.123V
    V(X_U3.2)                 =   407.79uV  \   420.05mV
    V(X_U3.VDD)               =    1.222mV  \     7.358V
    V(X_U3.1)                 =    1.222mV  \     7.358V
    V(X_U3.13)                =    1.222mV  \     7.358V
    V(X_U3.3)                 =   -16.50KV  \   -1.803KV
    V(X_U3.23)                =   -21.58mV  \   189.21mV
    V(X_U3.4)                 =  -798.78mV  \     6.558V
    V(X_U3.5)                 =  -821.58mV  \  -610.79mV
    V(X_U3.6)                 =    16.49KV  \   -2.398KV
    V(X_U3.21)                =   385.57mV  \   181.83mV
    V(X_U3.7)                 =  -798.78mV  \     6.558V
    V(X_U3.8)                 =  -414.43mV  \  -618.17mV
    V(X_U3.9)                 =    1.222mV  \     7.358V
    V(X_U3.11)                =    1.222mV  \     7.358V
    V(X_U3.18)                =   -38.48mV  \    1.626mV
    V(X_U3.14)                =    1.222mV  \     7.358V
    V(X_U3.15)                =    1.222mV  \     7.358V
    V(X_U3.16)                =    1.222mV  \     7.358V
    V(X_U3.25)                =   -19.24mV  \   973.19uV
    V(X_U3.24)                =    1.222mV  \     7.358V
    V(X_U3.20)                =    1.242mV  \     7.358V
    V(TRANSMIT)               =     9.170V  \     4.998V
    V(X_U3.19)                =   -19.24mV  \   973.35uV
    V(X_U3.22)                =  -199.34mV  \     7.157V
    V(X_U5.2)                 =   407.79uV  \   420.05mV
    V(X_U5.VDD)               =    1.222mV  \     7.358V
    V(X_U5.1)                 =    1.222mV  \     7.358V
    V(X_U5.13)                =    1.222mV  \     7.358V
    V(X_U5.3)                 =   -16.50KV  \   -468.75V
    V(X_U5.23)                =  -659.51mV  \   224.03mV
    V(X_U5.4)                 =  -798.78mV  \     6.558V
    V(X_U5.5)                 =    -1.460V  \  -575.97mV
    V(X_U5.6)                 =    16.49KV  \   -3.732KV
    V(X_U5.21)                =   310.56mV  \   170.39mV
    V(X_U5.7)                 =  -798.78mV  \     6.558V
    V(X_U5.8)                 =  -489.44mV  \  -629.61mV
    V(X_U5.9)                 =    1.222mV  \     7.358V
    V(X_U5.11)                =    1.222mV  \     7.358V
    V(X_U5.14)                =    1.222mV  \     7.358V
    V(X_U5.15)                =    1.222mV  \     7.358V
    V(X_U5.16)                =    1.222mV  \     7.358V
    V(X_U5.24)                =     20.94V  \     7.337V
    V(X_U5.20)                =  -851.33uV  \     7.358V
    V(X_U5.22)                =     20.74V  \     7.136V
    V(X_out_signal_U3.2)      =   407.79uV  \   420.05mV
    V(X_out_signal_U3.VDD)    =    1.222mV  \     7.358V
    V(X_out_signal_U3.1)      =    1.222mV  \     7.358V
    V(X_out_signal_U3.13)     =    1.222mV  \     7.358V
    V(X_out_signal_U3.3)      =   -16.50KV  \    3.180KV
    V(X_out_signal_U3.23)     =  -334.11mV  \     7.183V
    V(X_out_signal_U3.4)      =  -798.78mV  \     6.558V
    V(X_out_signal_U3.5)      =    -1.134V  \     6.383V
    V(X_out_signal_U3.6)      =    16.49KV  \   -7.380KV
    V(X_out_signal_U3.21)     =   236.43mV  \   152.75mV
    V(X_out_signal_U3.7)      =  -798.78mV  \     6.558V
    V(X_out_signal_U3.8)      =  -563.57mV  \  -647.25mV
    V(X_out_signal_U3.9)      =    1.222mV  \     7.358V
    V(X_out_signal_U3.11)     =    1.222mV  \     7.358V
    V(X_out_signal_U3.18)     =    1.242mV  \     7.358V
    V(X_out_signal_U3.14)     =    1.222mV  \     7.358V
    V(X_out_signal_U3.15)     =   615.83uV  \     3.674V
    V(X_out_signal_U3.25)     =    1.222mV  \     7.358V
    V(X_out_signal_U3.20)     =    1.222mV  \     7.358V
    V(N130514)                =    21.99uV  \   132.44mV
    V(X_out_signal_U3.19)     =  -199.33mV  \     7.157V
    V(X_out_signal_U3.22)     =   606.05uV  \     3.673V
    V(X_U6.x1.101)            =    1.510mV  \     3.700V
    V(X_U6.x1.9)              =    1.222mV  \     7.359V
    V(X_U6.x1.8)              =    1.222mV  \     3.689V
    V(X_U6.x1.105)            =     1.362V  \    2.183KV
    V(X_U6.x1.106)            =     1.362V  \     8.854V
    V(X_U6.x1.5)              =     1.355V  \     8.797V
    V(X_U6.x1.6)              =   696.03mV  \     8.115V
    V(X_U6.x1.7)              =    1.235mV  \     7.395V
    V(X_U6.x1.4)              =     1.362V  \     8.854V
    V(X_U6.x1.55)             =    1.238mV  \     7.395V
    V(X_U6.x1.56)             =    1.328mV  \     7.395V
    V(X_U7B.xinstlm358.6)     =   -27.31mV  \     7.200V
    V(X_U7B.xinstlm358.26)    =  -953.50mV  \     7.154V
    V(X_U7B.xinstlm358.27)    =    -2.358V  \     5.698V
    V(X_U7B.xinstlm358.25)    =    -1.655V  \     6.426V
    V(X_U7B.xinstlm358.22)    =    -2.601V  \     5.502V
    V(X_U7B.xinstlm358.21)    =    -3.197V  \     4.907V
    V(X_U7B.xinstlm358.10)    =    -1.655V  \     6.426V
    V(X_U7B.xinstlm358.9)     =    67.99uV  \     5.461V
    V(X_U7B.xinstlm358.16)    =    -25.25V  \  -964.52mV
    V(X_U7B.xinstlm358.11)    =    -1.656V  \     5.458V
    V(X_U7B.xinstlm358.24)    =   608.92mV  \    1.001KV
    V(X_U7B.xinstlm358.14)    =    -1.202V  \     3.458V
    V(X_U7B.xinstlm358.18)    =    -1.202V  \     2.008V
    V(X_U7B.xinstlm358.5)     =    -1.116V  \     7.041V
    V(X_U7B.xinstlm358.1)     =    16.82uV  \    78.24mV
    V(X_U7B.xinstlm358.2)     =    -1.116V  \     7.014V
    V(X_U7B.xinstlm358.15)    =    -1.202V  \     3.458V
    V(X_U7B.xinstlm358.17)    =    -1.116V  \     7.041V
    V(X_U8A.x_lm393.7)        =     1.412V  \     5.090V
    V(X_U8A.x_lm393.21)       =    -2.131V  \     7.215V
    V(X_U8A.x_lm393.22)       =   750.86mV  \     4.429V
    V(X_U8B.x_lm393.7)        =     1.412V  \     5.826V
    V(X_U8B.x_lm393.21)       =  -617.29mV  \     7.340V
    V(X_U8B.x_lm393.22)       =   751.33mV  \     5.165V
    V(X_U7A.xinstlm358.6)     =   860.39uV  \     3.679V
    V(X_U7A.xinstlm358.26)    =    -2.429V  \     7.154V
    V(X_U7A.xinstlm358.27)    =    -3.833V  \     5.699V
    V(X_U7A.xinstlm358.25)    =    -3.131V  \     6.427V
    V(X_U7A.xinstlm358.22)    =    -4.066V  \     5.476V
    V(X_U7A.xinstlm358.21)    =    -4.661V  \     4.881V
    V(X_U7A.xinstlm358.10)    =    -3.131V  \     6.427V
    V(X_U7A.xinstlm358.9)     =    67.99uV  \     5.461V
    V(X_U7A.xinstlm358.16)    =     57.48V  \  -965.41mV
    V(X_U7A.xinstlm358.11)    =    -3.131V  \     5.459V
    V(X_U7A.xinstlm358.24)    =   608.92mV  \    1.001KV
    V(X_U7A.xinstlm358.14)    =     2.738V  \     3.458V
    V(X_U7A.xinstlm358.18)    =     2.739V  \     1.957V
    V(X_U7A.xinstlm358.5)     =     2.840V  \     3.330V
    V(X_U7A.xinstlm358.1)     =   -10.19uV  \    79.74mV
    V(X_U7A.xinstlm358.2)     =     2.840V  \     3.302V
    V(X_U7A.xinstlm358.15)    =     2.738V  \     3.458V
    V(X_U7A.xinstlm358.17)    =     2.840V  \     3.330V
    V(X$TRANSMIT_DtoA1.DPWR_OH) =     9.170V  \     4.998V
    V(X$TRANSMIT_DtoA1.DGND_OL) =    3.985mV  \    2.172mV

  These supply currents failed to converge:

    I(E_E1)                   =  -746.23uA  \   399.00uA
    I(X_U1.E_EMIR)            =  -514.86uA  \   -6.418uA
    I(X_U1.E_U6_E1CMP)        =    1.650mA  \   389.88uA
    I(X_U1.E_U6_E1)           =   884.45pA  \   -6.389nA
    I(X_U1.E_U7_E1CMP)        =   -1.649mA  \    30.21uA
    I(X_U1.E_U7_E1)           =    2.471nA  \   -6.323nA
    I(X_U3.E_EMIR)            =   192.38uA  \   -93.51uA
    I(X_U3.E_U6_E1CMP)        =    1.650mA  \   180.28uA
    I(X_U3.E_U6_E1)           =   777.18pA  \   -6.369nA
    I(X_U3.E_U7_E1CMP)        =   -1.649mA  \   239.81uA
    I(X_U3.E_U7_E1)           =    1.184nA  \   -6.376nA
    I(X_U5.E_EMIR)            =   209.39uA  \   -3.040uA
    I(X_U5.E_U6_E1CMP)        =    1.650mA  \    46.90uA
    I(X_U5.E_U6_E1)           =   139.26pA  \   -6.334nA
    I(X_U5.E_U7_E1CMP)        =   -1.649mA  \   373.20uA
    I(X_U5.E_U7_E1)           =    1.109nA  \   -6.388nA
    I(X_out_signal_U3.E_EMIR) =   387.56pA  \  -138.29nA
    I(X_out_signal_U3.E_U6_E1CMP) =    1.650mA  \  -317.23uA
    I(X_out_signal_U3.E_U6_E1) =   -1.650mA  \   316.51uA
    I(X_out_signal_U3.E_U7_E1CMP) =   -1.649mA  \   738.02uA
    I(X_out_signal_U3.E_U7_E1) =    1.035nA  \   -6.405nA
    I(X_U6.x1.Ebg)            =   -1.286mA  \     2.174A
    I(X_U6.x1.Eopamp)         =    6.362nA  \    -2.174A
    I(X_U6.x1.Efb)            =    6.691uA  \    56.65uA
    I(X_U7B.xinstlm358.EU1)   =    20.41pA  \   -7.201nA
    I(X_U7B.xinstlm358.E2)    =   -84.78nA  \   -99.35nA
    I(X_U7B.xinstlm358.EVM)   =   -1.656nA  \    5.459nA
    I(X_U7B.xinstlm358.EVP)   =    1.680nA  \   -156.88A
    I(X_U8A.x_lm393.e1)       =   -45.24pA  \    7.324nA
    I(X_U8B.x_lm393.e1)       =   -50.09pA  \    7.454nA
    I(X_U7A.xinstlm358.EU1)   =    17.13pA  \   -3.678nA
    I(X_U7A.xinstlm358.E2)    =   156.51nA  \  -276.77nA
    I(X_U7A.xinstlm358.EVM)   =   -3.131nA  \    5.464nA
    I(X_U7A.xinstlm358.EVP)   =    3.177nA  \   -162.40A
    I(V_V1)                   =  -227.20uA  \  -129.35mA
    I(V_V3)                   = -3.388e-21A  \   -3.772nA
    I(X_U1.V_U6_V2)           =   -1.650mA  \  -389.90uA
    I(X_U1.V_U7_V2)           =    1.649mA  \   -30.23uA
    I(X_U3.V_U6_V2)           =   -1.650mA  \  -180.30uA
    I(X_U3.V_U7_V2)           =    1.649mA  \  -239.82uA
    I(X_U5.V_U6_V2)           =   -1.650mA  \   -46.91uA
    I(X_U5.V_U7_V2)           =    1.649mA  \  -373.21uA
    I(X_out_signal_U3.V_U6_V2) =   -1.134nA  \    6.383nA
    I(X_out_signal_U3.V_U7_V2) =    1.649mA  \  -738.03uA
    I(X_U6.x1.Vbg)            =  -224.28uA  \    -3.700A
    I(X_U6.x1.Vl1)            =    6.724nA  \    -2.174A
    I(X_U6.x1.Vl2)            =   361.95pA  \    7.854nA
    I(X_U7B.xinstlm358.VFI7)  =   -74.92nA  \   -156.88A
    I(X_U7B.xinstlm358.VFI6)  =   -25.62nA  \   -156.88A
    I(X_U7B.xinstlm358.VREF)  =   -1.012uA  \     2.660A
    I(X_U8A.x_lm393.vi1)      =    2.150nA  \   -7.198nA
    I(X_U8A.x_lm393.vi2)      =    49.87nA  \    46.19nA
    I(X_U8A.x_lm393.v1)       =    45.24pA  \   -7.324nA
    I(X_U8B.x_lm393.vi1)      =   636.24pA  \   -7.322nA
    I(X_U8B.x_lm393.vi2)      =    49.87nA  \    45.46nA
    I(X_U8B.x_lm393.v1)       =    50.09pA  \   -7.454nA
    I(X_U7A.xinstlm358.VFI7)  =   170.52nA  \   -162.40A
    I(X_U7A.xinstlm358.VFI6)  =    58.31nA  \   -162.40A
    I(X_U7A.xinstlm358.VREF)  =   -1.012uA  \     2.660A
    I(X$DIGIFPWR.VDPWR)       =   -96.70uA  \   -54.98uA
    I(X$DIGIFPWR.VDGND)       =   -5.014uA  \   -5.003uA

  These devices failed to converge:
    X_U1.D_U6_D2CLMP X_U1.D_U6_D1CLMP X_U1.D_U7_D2CLMP X_U1.D_U7_D1CLMP 
    X_U3.D_U6_D2CLMP X_U3.D_U6_D1CLMP X_U3.D_U7_D2CLMP X_U3.D_U7_D1CLMP 
    X_U5.D_U6_D1CLMP X_U5.D_U7_D2CLMP X_U5.D_U7_D1CLMP 
    X_out_signal_U3.D_U6_D2CLMP X_out_signal_U3.D_U6_D1CLMP 
    X_out_signal_U3.D_U7_D2CLMP X_out_signal_U3.D_U7_D1CLMP X_U6.x1.Dz1 
    X_U7B.xinstlm358.D1 X_U7B.xinstlm358.D2 X_U7B.xinstlm358.D8 
    X_U7B.xinstlm358.D4 X_U7B.xinstlm358.D5 X_U7B.xinstlm358.D9 
    X_U7A.xinstlm358.D1 X_U7A.xinstlm358.D2 X_U7A.xinstlm358.D8 
    X_U7A.xinstlm358.D3 X_U7A.xinstlm358.D5 X_U7A.xinstlm358.D9 
    X$C_CLK_AtoD1.D1 X_U1.J_J1 X_U3.J_J1 X_U5.J_J1 X_out_signal_U3.J_J1 
    X_U1.M_M1 X_U1.M_U2_U2_M8 X_U1.M_U2_U5_M1 X_U1.M_U2_U5_M2 X_U1.M_U2_U5_M3 
    X_U1.M_U2_U5_M4 X_U3.M_M1 X_U3.M_U2_U4_M2 X_U3.M_U2_U4_M3 X_U3.M_U2_U4_M4 
    X_U3.M_U2_U5_M3 X_U3.M_U2_U5_M4 X_U3.M_U2_U7_M2 X_U3.M_U2_U7_M3 X_U5.M_M1 
    X_U5.M_U2_U2_M8 X_U5.M_U2_U3_M2 X_U5.M_U2_U5_M2 X_U5.M_U2_U5_M3 
    X_U5.M_U2_U5_M4 X_U5.M_U2_U6_M2 X_U5.M_U2_U6_M3 X_out_signal_U3.M_M1 
    X_out_signal_U3.M_U2_U3_M2 X_out_signal_U3.M_U2_U4_M3 
    X_out_signal_U3.M_U2_U5_M4 X_out_signal_U3.M_U2_U6_M3 X_U6.x1.Q1 X_U6.x1.Q2 
    X_U7B.xinstlm358.QON X_U7B.xinstlm358.QOP X_U7B.xinstlm358.QIN 
    X_U8A.x_lm393.q1 X_U8B.x_lm393.q1 X_U7A.xinstlm358.QON X_U7A.xinstlm358.QOP 
    X_U7A.xinstlm358.QIP X_U7A.xinstlm358.QIN 

**** Interrupt ****
