
**** 11/20/22 16:02:45 ******* PSpice 17.4.0 (Nov 2018) ******* ID# 0 ********

 ** Profile: "SCHEMATIC1-testprofile"  [ D:\cad\cadence\LPF-PSpiceFiles\SCHEMATIC1\testprofile.sim ] 


 ****     CIRCUIT DESCRIPTION


******************************************************************************




** Creating circuit file "testprofile.cir" 
** WARNING: THIS AUTOMATICALLY GENERATED FILE MAY BE OVERWRITTEN BY SUBSEQUENT SIMULATIONS

*Libraries: 
* Profile Libraries :
* Local Libraries :
* From [PSPICE NETLIST] section of D:\cad\cadence\cdssetup\OrCAD_PSpice\17.4.0\PSpice.ini file:
.lib "nom.lib" 

*Analysis directives: 
.TRAN  0 10m 0 1u 
.OPTIONS ADVCONV
.PROBE64 V(alias(*)) I(alias(*)) W(alias(*)) D(alias(*)) NOISE(alias(*)) 
.INC "..\SCHEMATIC1.net" 



**** INCLUDING SCHEMATIC1.net ****
* source LPF
V_Control         N15456 0  
+PULSE 0V 5V 1m 1n 1n 250u 6.67m
X_S1    N15456 0 N16694 0 SCHEMATIC1_S1 
X_S2    N15456 0 N16936 N16694 SCHEMATIC1_S2 
V_Ultrasonic         N16936 0  
+PULSE 0V 5V 0 1n 1n 12.5u 25u

.subckt SCHEMATIC1_S1 1 2 3 4  
S_S1         3 4 1 2 _S1
RS_S1         1 2 1G
.MODEL         _S1 VSWITCH Roff=1e6 Ron=1.0 Voff=5V Von=0V
.ends SCHEMATIC1_S1

.subckt SCHEMATIC1_S2 1 2 3 4  
S_S2         3 4 1 2 _S2
RS_S2         1 2 1G
.MODEL         _S2 VSWITCH Roff=1e6 Ron=1.0 Voff=0V Von=5V
.ends SCHEMATIC1_S2

**** RESUMING testprofile.cir ****
.END

**** 11/20/22 16:02:45 ******* PSpice 17.4.0 (Nov 2018) ******* ID# 0 ********

 ** Profile: "SCHEMATIC1-testprofile"  [ D:\cad\cadence\LPF-PSpiceFiles\SCHEMATIC1\testprofile.sim ] 


 ****     Voltage Controlled Switch MODEL PARAMETERS


******************************************************************************




               X_S1._S1        X_S2._S2        
         RON    1               1            
        ROFF    1.000000E+06    1.000000E+06 
         VON    0               5            
        VOFF    5               0            


**** 11/20/22 16:02:45 ******* PSpice 17.4.0 (Nov 2018) ******* ID# 0 ********

 ** Profile: "SCHEMATIC1-testprofile"  [ D:\cad\cadence\LPF-PSpiceFiles\SCHEMATIC1\testprofile.sim ] 


 ****     INITIAL TRANSIENT SOLUTION       TEMPERATURE =   27.000 DEG C


******************************************************************************



 NODE   VOLTAGE     NODE   VOLTAGE     NODE   VOLTAGE     NODE   VOLTAGE


(N15456)    0.0000 (N16694)    0.0000 (N16936)    0.0000 




    VOLTAGE SOURCE CURRENTS
    NAME         CURRENT

    V_Control    0.000E+00
    V_Ultrasonic   0.000E+00

    TOTAL POWER DISSIPATION   0.00E+00  WATTS



          JOB CONCLUDED

**** 11/20/22 16:02:45 ******* PSpice 17.4.0 (Nov 2018) ******* ID# 0 ********

 ** Profile: "SCHEMATIC1-testprofile"  [ D:\cad\cadence\LPF-PSpiceFiles\SCHEMATIC1\testprofile.sim ] 


 ****     JOB STATISTICS SUMMARY


******************************************************************************



  Total job time (using Solver 1)   =         .08
