
**** 11/21/22 12:28:50 ******* PSpice 17.4.0 (Nov 2018) ******* ID# 0 ********

 ** Profile: "Ultrasonic_Generator-US_tran2"  [ d:\cad\cadence\eed3009-PSpiceFiles\Ultrasonic_Generator\US_tran2.sim ] 


 ****     CIRCUIT DESCRIPTION


******************************************************************************




** Creating circuit file "US_tran2.cir" 
** WARNING: THIS AUTOMATICALLY GENERATED FILE MAY BE OVERWRITTEN BY SUBSEQUENT SIMULATIONS

*Libraries: 
* Profile Libraries :
* Local Libraries :
* From [PSPICE NETLIST] section of D:\cad\cadence\cdssetup\OrCAD_PSpice\17.4.0\PSpice.ini file:
.lib "nom.lib" 

*Analysis directives: 
.TRAN  0 50ms 0 1u SKIPBP 
.OPTIONS ADVCONV
.OPTIONS GMIN= 1.0E-9
.PROBE64 V(alias(*)) I(alias(*)) W(alias(*)) D(alias(*)) NOISE(alias(*)) 
.INC "..\Ultrasonic_Generator.net" 



**** INCLUDING Ultrasonic_Generator.net ****
* source EED3009
X_U1         0 N05667 VOUT1 VCC N02335 N02197 N02197 VCC 555B
C_C1         0 N02197  10u  TC=0,0 
C_C2         0 N02335  10n  TC=0,0 
R_R1         N02197 VCC  1k TC=0,0 
V_V1         VCC 0 12V
C_C3         0 N03246  10u  TC=0,0 
R_R2         N03246 VCC  1k TC=0,0 
C_C4         0 N03350  10n  TC=0,0 
X_U2         0 N05967 VOUT2 VCC N03350 N03246 N03246 VCC 555B
V_V2         N06135 0  
+PULSE 12V 0V 0 1n 1n 100u 1s
R_R6         N05667 N06135  50k TC=0,0 

**** RESUMING US_tran2.cir ****
.END

ERROR(ORPSIM-15141): Less than 2 connections at node N05967.
