
**** 11/21/22 05:59:35 ******* PSpice 17.4.0 (Nov 2018) ******* ID# 0 ********

 ** Profile: "Ultrasonic_Generator-US_tran1"  [ D:\cad\cadence\EED3009-PSpiceFiles\Ultrasonic_Generator\US_tran1.sim ] 


 ****     CIRCUIT DESCRIPTION


******************************************************************************




** Creating circuit file "US_tran1.cir" 
** WARNING: THIS AUTOMATICALLY GENERATED FILE MAY BE OVERWRITTEN BY SUBSEQUENT SIMULATIONS

*Libraries: 
* Profile Libraries :
* Local Libraries :
* From [PSPICE NETLIST] section of D:\cad\cadence\cdssetup\OrCAD_PSpice\17.4.0\PSpice.ini file:
.lib "nom.lib" 

*Analysis directives: 
.TRAN  0 50ms 0 1us 
.OPTIONS ADVCONV
.OPTIONS GMIN= 1.0E-9
.PROBE64 N([VOUT1])
.INC "..\Ultrasonic_Generator.net" 



**** INCLUDING Ultrasonic_Generator.net ****
* source EED3009
X_U1         0 VOUT2 N06711 VCC N02335 N02197 N02197 VCC 555B
C_C1         0 N02197  10u  TC=0,0 
C_C2         0 N02335  10n  TC=0,0 
R_R1         N02197 VCC  1k TC=0,0 
V_V1         VCC 0 12V
C_C3         0 N03246  10u  TC=0,0 
R_R2         N03246 VCC  1k TC=0,0 
C_C4         0 N03350  10n  TC=0,0 
X_U2         0 VOUT1 N06786 VCC N03350 N03246 N03246 VCC 555B
V_V2         N06135 0  
+PULSE 12V 0V 0 1n 1n 100u 1s
R_R6         VOUT2 N06135  50k TC=0,0 
R_R7         N06711 VOUT1  100 TC=0,0 
R_R8         N06786 VOUT2  100 TC=0,0 

**** RESUMING US_tran1.cir ****
.END

**** 11/21/22 05:59:35 ******* PSpice 17.4.0 (Nov 2018) ******* ID# 0 ********

 ** Profile: "Ultrasonic_Generator-US_tran1"  [ D:\cad\cadence\EED3009-PSpiceFiles\Ultrasonic_Generator\US_tran1.sim ] 


 ****     BJT MODEL PARAMETERS


******************************************************************************




               X_U1.qnpn555    X_U1.qpnp555    X_U2.qnpn555    X_U2.qpnp555    
               NPN             PNP             NPN             PNP             
       LEVEL    1               1               1               1            
          IS   14.340000E-15  650.600000E-18   14.340000E-15  650.600000E-18 
          BF   65.62           70.35           65.62           70.35         
          NF    1               1               1               1            
         VAF   74.03          115.7            74.03          115.7          
         IKF     .02             .02             .02             .02         
         ISE   19.480000E-15  180.500000E-15   19.480000E-15  180.500000E-15 
          NE    1.208           1.829           1.208           1.829        
          BR    9.715           4.146           9.715           4.146        
          NR    1               1               1               1            
         ISS    0               0               0               0            
          RB   10              10              10              10            
          RE    0               0               0               0            
          RC    1                .715           1                .715        
         CJE   40.000000E-12   40.000000E-12   40.000000E-12   40.000000E-12 
         VJE     .75             .75             .75             .75         
         MJE     .377            .3357           .377            .3357       
         CJC   40.000000E-12   40.000000E-12   40.000000E-12   40.000000E-12 
         VJC     .75             .75             .75             .75         
         MJC     .3416           .5383           .3416           .5383       
        XCJC    1               1               1               1            
         CJS    0               0               0               0            
         VJS     .75             .75             .75             .75         
          TF    1.000000E-09    1.000000E-09    1.000000E-09    1.000000E-09 
         XTF    3               1.7             3               1.7          
         VTF    1.7             5               1.7             5            
         ITF     .6              .65             .6              .65         
          TR   58.980000E-09  119.900000E-09   58.980000E-09  119.900000E-09 
         XTB    1.5             1.5             1.5             1.5          
          KF    0               0               0               0            
          AF    1               1               1               1            
          CN    2.42            2.2             2.42            2.2          
           D     .87             .52             .87             .52         


Starting pseudo-transient algorithm.

ERROR -- Convergence problem in transient bias point calculation


  Last node voltages tried were:

 NODE   VOLTAGE     NODE   VOLTAGE     NODE   VOLTAGE     NODE   VOLTAGE


(  VCC)   12.0000  (VOUT1)     .0048  (VOUT2)   11.9430  (N02197)    7.9752     

(N02335)    7.9999 (N03246)     .0704 (N03350)    7.9942 (N06135)   12.0000     

(N06711)     .0047 (N06786)   11.9430 (X_U1.9)   11.2640 (X_U2.9)   11.2660     

(X_U1.10)    1.6687                   (X_U1.11)     .9266                       

(X_U1.12)     .0249                   (X_U1.13)     .6757                       

(X_U1.14)     .6808                   (X_U1.15)     .0336                       

(X_U1.16)     .6231                   (X_U1.17)   11.2970                       

(X_U1.18)   11.3090                   (X_U1.19)    4.9866                       

(X_U1.20)   11.9220                   (X_U1.21)     .0026                       

(X_U1.22)     .5746                   (X_U1.23)    5.8295                       

(X_U1.24)    4.3286                   (X_U1.25)    4.0023                       

(X_U1.26)     .9119                   (X_U1.27)     .7662                       

(X_U1.28)     .3482                   (X_U1.29)     .7537                       

(X_U1.30)    7.4658                   (X_U1.31)    7.4529                       

(X_U1.32)    6.8438                   (X_U2.10)     .0095                       

(X_U2.11)   12.0050                   (X_U2.12)     .7250                       

(X_U2.13)     .0027                   (X_U2.14)    1.3791                       

(X_U2.15)     .0026                   (X_U2.16)     .6343                       

(X_U2.17)   11.2840                   (X_U2.18)   11.5740                       

(X_U2.19)     .8040                   (X_U2.20)   11.9230                       

(X_U2.21)     .6324                   (X_U2.22)     .4510                       

(X_U2.23)     .1453                   (X_U2.24)    2.7786                       

(X_U2.25)    3.9974                   (X_U2.26) 435.2E-06                       

(X_U2.27) 440.5E-06                   (X_U2.28)   11.9400                       

(X_U2.29) 442.9E-06                   (X_U2.30)    7.4487                       

(X_U2.31)    5.9427                   (X_U2.32)    6.8140                   


  These voltages failed to converge:

    V(N02197)                 =     11.98V  \     7.975V
    V(N02335)                 =     8.056V  \     8.000V
    V(N03246)                 =     12.00V  \    70.44mV
    V(VOUT2)                  =     12.00V  \     11.94V
    V(N06711)                 =     6.574V  \    4.706mV
    V(VOUT1)                  =     6.574V  \    4.756mV
    V(N06786)                 =     12.00V  \     11.94V
    V(X_U1.18)                =     10.03V  \     11.31V
    V(X_U1.31)                =     10.29V  \     7.453V
    V(X_U1.32)                =     8.396V  \     6.844V
    V(X_U1.17)                =     12.08V  \     11.30V
    V(X_U1.30)                =     8.230V  \     7.466V
    V(X_U1.15)                =     4.364V  \    33.61mV
    V(X_U1.16)                =   -54.10mV  \   623.07mV
    V(X_U1.19)                =     54.44V  \     4.987V
    V(X_U1.22)                =   572.06mV  \   574.58mV
    V(X_U1.24)                =     53.79V  \     4.329V
    V(X_U1.25)                =     4.028V  \     4.002V
    V(X_U1.21)                =    2.589mV  \    2.624mV
    V(X_U1.23)                =   686.31mV  \     5.830V
    V(X_U1.14)                =   574.34mV  \   680.84mV
    V(X_U1.13)                =   787.80mV  \   675.69mV
    V(X_U1.12)                =   -81.92mV  \    24.86mV
    V(X_U1.10)                =     7.818V  \     1.669V
    V(X_U1.11)                =     7.129V  \   926.64mV
    V(X_U1.26)                =     2.346V  \   911.85mV
    V(X_U1.29)                =     2.346V  \   753.73mV
    V(X_U1.27)                =     2.346V  \   766.16mV
    V(X_U1.28)                =     6.574V  \   348.17mV
    V(X_U2.18)                =     11.59V  \     11.57V
    V(X_U2.31)                =     10.83V  \     5.943V
    V(X_U2.19)                =     2.110V  \   804.05mV
    V(X_U2.22)                =   424.62mV  \   450.96mV
    V(X_U2.24)                =   145.09mV  \     2.779V
    V(X_U2.23)                =     1.453V  \   145.30mV
    V(X_U2.26)                =    68.74uV  \   435.19uV
    V(X_U2.29)                =    68.89uV  \   442.90uV
    V(X_U2.27)                =    69.31uV  \   440.51uV
    V(X_U2.28)                =     12.00V  \     11.94V

  These supply currents failed to converge:

    I(V_V1)                   =   -11.29mA  \   -28.00mA
    I(V_V2)                   =   -31.47nA  \   -1.146uA

  These devices failed to converge:
    X_U1.q_q2 X_U1.q_q1 X_U1.q_q4 X_U1.q_q3 X_U1.q_q5d X_U1.q_q5 X_U1.q_q6d 
    X_U1.q_q6 X_U1.q_q11 X_U1.q_q9 X_U1.q_q10 X_U1.q_q8 X_U1.q_q12 X_U1.q_q13 
    X_U1.q_q16 X_U1.q_q15 X_U1.q_q17 X_U1.q_q19 X_U1.q_q20 X_U1.q_q23 
    X_U1.q_q26 X_U1.q_q27 X_U1.q_q28 X_U1.q_q24 X_U1.q_q25 X_U1.q_q14 X_U2.q_q2 
    X_U2.q_q1 X_U2.q_q5d X_U2.q_q5 X_U2.q_q9 X_U2.q_q8 X_U2.q_q7 X_U2.q_q12 
    X_U2.q_q13 X_U2.q_q14 

**** Interrupt ****
